AA-504/07224027
  MOE2011           3D

 74 77  0  0  1  0  0  0  0  0999 V2000
    0.0980    0.1470   -0.5830 C   0  0  1  0  0  0  0  0  0  0  0  0
   -4.0200    0.2710   -0.6510 C   0  0  1  0  0  0  0  0  0  0  0  0
   -4.5950    0.8700    0.6310 C   0  0  0  0  0  0  0  0  0  0  0  0
   -0.8830    0.7120    0.4890 C   0  0  3  0  0  0  0  0  0  0  0  0
   -2.7370    1.0570   -1.1830 C   0  0  3  0  0  0  0  0  0  0  0  0
   -1.8640    1.7330   -0.0900 C   0  0  1  0  0  0  0  0  0  0  0  0
    0.9160   -0.7940    0.3490 C   0  0  2  0  0  0  0  0  0  0  0  0
   -3.9890    1.8450    1.3260 C   0  0  0  0  0  0  0  0  0  0  0  0
   -4.4530    2.2260    2.2340 H   0  0  0  0  0  0  0  0  0  0  0  0
   -0.7020   -0.5690   -1.6780 C   0  0  0  0  0  0  0  0  0  0  0  0
   -0.0420   -0.8330   -2.5150 H   0  0  0  0  0  0  0  0  0  0  0  0
   -1.0720   -1.5300   -1.3130 H   0  0  0  0  0  0  0  0  0  0  0  0
   -2.7040    2.4910    0.9440 C   0  0  0  0  0  0  0  0  0  0  0  0
   -2.9540    3.4800    0.5360 H   0  0  0  0  0  0  0  0  0  0  0  0
   -2.1170    2.6850    1.8480 H   0  0  0  0  0  0  0  0  0  0  0  0
   -1.8700    0.2800   -2.2210 C   0  0  0  0  0  0  0  0  0  0  0  0
   -2.4990   -0.3510   -2.8580 H   0  0  0  0  0  0  0  0  0  0  0  0
   -1.4380    1.0270   -2.9020 H   0  0  0  0  0  0  0  0  0  0  0  0
    0.0530    1.1310    1.6260 C   0  0  0  0  0  0  0  0  0  0  0  0
    0.4540    2.1380    1.4700 H   0  0  0  0  0  0  0  0  0  0  0  0
   -0.4570    1.1240    2.5950 H   0  0  0  0  0  0  0  0  0  0  0  0
   -3.7820   -1.2470   -0.3900 C   0  0  0  0  0  0  0  0  0  0  0  0
   -4.0750   -1.8290   -1.2730 H   0  0  0  0  0  0  0  0  0  0  0  0
   -2.7270   -1.4570   -0.2370 H   0  0  0  0  0  0  0  0  0  0  0  0
    1.1890    0.0850    1.5940 C   0  0  0  0  0  0  0  0  0  0  0  0
    1.1700   -0.5210    2.5060 H   0  0  0  0  0  0  0  0  0  0  0  0
    2.1560    0.5900    1.5610 H   0  0  0  0  0  0  0  0  0  0  0  0
   -5.8810    0.2500    1.1530 C   0  0  0  0  0  0  0  0  0  0  0  0
   -6.7330    0.6490    0.5900 H   0  0  0  0  0  0  0  0  0  0  0  0
   -6.0310    0.5540    2.1980 H   0  0  0  0  0  0  0  0  0  0  0  0
    2.0520   -1.7140   -0.1730 C   0  0  1  0  0  0  0  0  0  0  0  0
    0.9520    1.2620   -1.2390 C   0  0  0  0  0  0  0  0  0  0  0  0
    1.5870    0.8740   -2.0360 H   0  0  0  0  0  0  0  0  0  0  0  0
    1.5960    1.7810   -0.5250 H   0  0  0  0  0  0  0  0  0  0  0  0
    0.3410    2.0270   -1.7260 H   0  0  0  0  0  0  0  0  0  0  0  0
   -4.4730   -1.8430    0.8510 C   0  0  0  0  0  0  0  0  0  0  0  0
   -3.8460   -1.6460    1.7310 H   0  0  0  0  0  0  0  0  0  0  0  0
   -4.5130   -2.9330    0.7350 H   0  0  0  0  0  0  0  0  0  0  0  0
   -5.8670   -1.2850    1.1080 C   0  0  2  0  0  0  0  0  0  0  0  0
   -5.0850    0.4160   -1.7800 C   0  0  0  0  0  0  0  0  0  0  0  0
   -4.7030    0.0550   -2.7410 H   0  0  0  0  0  0  0  0  0  0  0  0
   -5.3780    1.4650   -1.9150 H   0  0  0  0  0  0  0  0  0  0  0  0
   -5.9990   -0.1460   -1.5820 H   0  0  0  0  0  0  0  0  0  0  0  0
   -6.7600   -1.7500    0.0960 O   0  0  0  0  0  0  0  0  0  0  0  0
   -6.7460   -2.7220    0.1150 H   0  0  0  0  0  0  0  0  0  0  0  0
    4.0590   -0.0590   -0.6590 C   0  0  0  0  0  0  0  0  0  0  0  0
    4.3320    0.5290   -1.5440 H   0  0  0  0  0  0  0  0  0  0  0  0
    3.5480    0.6270    0.0150 H   0  0  0  0  0  0  0  0  0  0  0  0
    3.1280   -1.1780   -1.1370 C   0  0  0  0  0  0  0  0  0  0  0  0
    3.7450   -2.0240   -1.4690 H   0  0  0  0  0  0  0  0  0  0  0  0
    2.6260   -0.8540   -2.0540 H   0  0  0  0  0  0  0  0  0  0  0  0
    2.6830   -2.4920    0.9910 C   0  0  0  0  0  0  0  0  0  0  0  0
    3.4210   -3.2150    0.6260 H   0  0  0  0  0  0  0  0  0  0  0  0
    1.9180   -3.0560    1.5370 H   0  0  0  0  0  0  0  0  0  0  0  0
    3.1770   -1.8290    1.7060 H   0  0  0  0  0  0  0  0  0  0  0  0
    5.3520   -0.5700   -0.0140 C   0  0  0  0  0  0  0  0  0  0  0  0
    5.9220   -1.1470   -0.7540 H   0  0  0  0  0  0  0  0  0  0  0  0
    5.1120   -1.2630    0.7980 H   0  0  0  0  0  0  0  0  0  0  0  0
    6.2360    0.5560    0.5560 C   0  0  0  0  0  0  0  0  0  0  0  0
    5.6460    1.1350    1.2780 H   0  0  0  0  0  0  0  0  0  0  0  0
    6.7400    1.5120   -0.5260 C   0  0  0  0  0  0  0  0  0  0  0  0
    7.2740    0.9720   -1.3150 H   0  0  0  0  0  0  0  0  0  0  0  0
    7.4240    2.2540   -0.1020 H   0  0  0  0  0  0  0  0  0  0  0  0
    5.9140    2.0620   -0.9880 H   0  0  0  0  0  0  0  0  0  0  0  0
    7.4270   -0.0480    1.3050 C   0  0  0  0  0  0  0  0  0  0  0  0
    8.0590   -0.6400    0.6350 H   0  0  0  0  0  0  0  0  0  0  0  0
    7.0870   -0.7000    2.1160 H   0  0  0  0  0  0  0  0  0  0  0  0
    8.0470    0.7380    1.7500 H   0  0  0  0  0  0  0  0  0  0  0  0
    0.1820   -1.5360    0.7140 H   0  0  0  0  0  0  0  0  0  0  0  0
   -1.2740    2.5180   -0.5770 H   0  0  0  0  0  0  0  0  0  0  0  0
   -1.4870   -0.1090    0.8990 H   0  0  0  0  0  0  0  0  0  0  0  0
   -3.1450    1.9110   -1.7490 H   0  0  0  0  0  0  0  0  0  0  0  0
    1.5310   -2.4770   -0.7730 H   0  0  0  0  0  0  0  0  0  0  0  0
   -6.2520   -1.6750    2.0580 H   0  0  0  0  0  0  0  0  0  0  0  0
  1  4  1  0  0  0  0
  1  7  1  0  0  0  0
  1 10  1  0  0  0  0
  1 32  1  0  0  0  0
  2  3  1  0  0  0  0
  2  5  1  0  0  0  0
  2 22  1  0  0  0  0
  2 40  1  0  0  0  0
  3  8  2  0  0  0  0
  3 28  1  0  0  0  0
  4  6  1  0  0  0  0
  4 19  1  0  0  0  0
  4 71  1  0  0  0  0
  5  6  1  0  0  0  0
  5 16  1  0  0  0  0
  5 72  1  0  0  0  0
  6 13  1  0  0  0  0
  6 70  1  0  0  0  0
  7 25  1  0  0  0  0
  7 31  1  0  0  0  0
  7 69  1  0  0  0  0
  8  9  1  0  0  0  0
  8 13  1  0  0  0  0
 10 11  1  0  0  0  0
 10 12  1  0  0  0  0
 10 16  1  0  0  0  0
 13 14  1  0  0  0  0
 13 15  1  0  0  0  0
 16 17  1  0  0  0  0
 16 18  1  0  0  0  0
 19 20  1  0  0  0  0
 19 21  1  0  0  0  0
 19 25  1  0  0  0  0
 22 23  1  0  0  0  0
 22 24  1  0  0  0  0
 22 36  1  0  0  0  0
 25 26  1  0  0  0  0
 25 27  1  0  0  0  0
 28 29  1  0  0  0  0
 28 30  1  0  0  0  0
 28 39  1  0  0  0  0
 31 49  1  0  0  0  0
 31 52  1  0  0  0  0
 31 73  1  0  0  0  0
 32 33  1  0  0  0  0
 32 34  1  0  0  0  0
 32 35  1  0  0  0  0
 36 37  1  0  0  0  0
 36 38  1  0  0  0  0
 36 39  1  0  0  0  0
 39 44  1  0  0  0  0
 39 74  1  0  0  0  0
 40 41  1  0  0  0  0
 40 42  1  0  0  0  0
 40 43  1  0  0  0  0
 44 45  1  0  0  0  0
 46 47  1  0  0  0  0
 46 48  1  0  0  0  0
 46 49  1  0  0  0  0
 46 56  1  0  0  0  0
 49 50  1  0  0  0  0
 49 51  1  0  0  0  0
 52 53  1  0  0  0  0
 52 54  1  0  0  0  0
 52 55  1  0  0  0  0
 56 57  1  0  0  0  0
 56 58  1  0  0  0  0
 56 59  1  0  0  0  0
 59 60  1  0  0  0  0
 59 61  1  0  0  0  0
 59 65  1  0  0  0  0
 61 62  1  0  0  0  0
 61 63  1  0  0  0  0
 61 64  1  0  0  0  0
 65 66  1  0  0  0  0
 65 67  1  0  0  0  0
 65 68  1  0  0  0  0
M  END
>  <IDNUMBER>
AA-504/07224027

>  <NAME>
17-(1,5-dimethylhexyl)-10,13-dimethyl-2,3,4,7,8,9,10,11,12,13,14,15,16,17-tetradecahydro-1H-cyclopenta[a]phenanthren-3-ol

>  <ADD_INFO>
http://www.specs.net/enter.php?specsid=AA-504/07224027

>  <H_ACCEPTORS>
1

>  <H_DONORS>
1

>  <ROTATABLE_BONDS>
5

>  <LOGP>
8.7399998

>  <LOGS>
-8.9700003

>  <TPSA>
20.23

>  <PRICE>
N05

$$$$
AA-504/07226009
  MOE2011           3D

 80 83  0  0  1  0  0  0  0  0999 V2000
   -0.1340   -1.2020    0.1350 C   0  0  1  0  0  0  0  0  0  0  0  0
   -4.2400    0.5780    0.3990 C   0  0  1  0  0  0  0  0  0  0  0  0
   -5.3670   -0.2800   -0.1960 C   0  0  0  0  0  0  0  0  0  0  0  0
   -1.2990   -1.8020   -0.6930 C   0  0  2  0  0  0  0  0  0  0  0  0
   -2.8350    0.1310   -0.1730 C   0  0  2  0  0  0  0  0  0  0  0  0
   -2.6920   -1.4170   -0.1820 C   0  0  1  0  0  0  0  0  0  0  0  0
    1.0650   -1.8530   -0.6210 C   0  0  2  0  0  0  0  0  0  0  0  0
   -5.1390   -1.4310   -0.8530 C   0  0  0  0  0  0  0  0  0  0  0  0
   -5.9750   -1.9890   -1.2710 H   0  0  0  0  0  0  0  0  0  0  0  0
   -0.2550    0.3270    0.0070 C   0  0  0  0  0  0  0  0  0  0  0  0
    0.5250    0.8320    0.5850 H   0  0  0  0  0  0  0  0  0  0  0  0
   -0.1150    0.6320   -1.0380 H   0  0  0  0  0  0  0  0  0  0  0  0
   -3.7890   -2.0410   -1.0590 C   0  0  0  0  0  0  0  0  0  0  0  0
   -3.8520   -3.1140   -0.8440 H   0  0  0  0  0  0  0  0  0  0  0  0
   -3.5350   -1.9450   -2.1220 H   0  0  0  0  0  0  0  0  0  0  0  0
   -1.6240    0.8380    0.4920 C   0  0  0  0  0  0  0  0  0  0  0  0
   -1.6710    1.9140    0.2910 H   0  0  0  0  0  0  0  0  0  0  0  0
   -1.6640    0.7290    1.5790 H   0  0  0  0  0  0  0  0  0  0  0  0
   -0.9560   -3.2830   -0.7890 C   0  0  0  0  0  0  0  0  0  0  0  0
   -1.2680   -3.8240    0.1120 H   0  0  0  0  0  0  0  0  0  0  0  0
   -1.4340   -3.7650   -1.6470 H   0  0  0  0  0  0  0  0  0  0  0  0
   -4.4750    2.0680    0.0110 C   0  0  0  0  0  0  0  0  0  0  0  0
   -3.7840    2.7180    0.5600 H   0  0  0  0  0  0  0  0  0  0  0  0
   -4.2500    2.2090   -1.0560 H   0  0  0  0  0  0  0  0  0  0  0  0
    0.5740   -3.2990   -0.9200 C   0  0  0  0  0  0  0  0  0  0  0  0
    0.8700   -3.5850   -1.9370 H   0  0  0  0  0  0  0  0  0  0  0  0
    0.9890   -4.0520   -0.2470 H   0  0  0  0  0  0  0  0  0  0  0  0
   -6.7820    0.2270   -0.0210 C   0  0  0  0  0  0  0  0  0  0  0  0
   -7.0870    0.1110    1.0270 H   0  0  0  0  0  0  0  0  0  0  0  0
   -7.5000   -0.3770   -0.5910 H   0  0  0  0  0  0  0  0  0  0  0  0
    2.5280   -1.7940   -0.0950 C   0  0  1  0  0  0  0  0  0  0  0  0
    3.0550   -0.3400   -0.0370 C   0  0  0  0  0  0  0  0  0  0  0  0
    2.7240    0.1810   -0.9420 H   0  0  0  0  0  0  0  0  0  0  0  0
    2.6210    0.1800    0.8230 H   0  0  0  0  0  0  0  0  0  0  0  0
    4.5880   -0.2550    0.0580 C   0  0  0  0  0  0  0  0  0  0  0  0
    5.0350   -0.7370   -0.8200 H   0  0  0  0  0  0  0  0  0  0  0  0
    4.9050   -0.8400    0.9260 H   0  0  0  0  0  0  0  0  0  0  0  0
   -0.1730   -1.6050    1.6240 C   0  0  0  0  0  0  0  0  0  0  0  0
    0.5780   -1.0500    2.1940 H   0  0  0  0  0  0  0  0  0  0  0  0
    0.0090   -2.6730    1.7730 H   0  0  0  0  0  0  0  0  0  0  0  0
   -1.1330   -1.3860    2.1000 H   0  0  0  0  0  0  0  0  0  0  0  0
    5.1490    1.1830    0.2170 C   0  0  2  0  0  0  0  0  0  0  0  0
   -5.8980    2.5680    0.2590 C   0  0  0  0  0  0  0  0  0  0  0  0
   -5.9930    3.6010   -0.0980 H   0  0  0  0  0  0  0  0  0  0  0  0
   -6.1110    2.6120    1.3340 H   0  0  0  0  0  0  0  0  0  0  0  0
   -6.9260    1.6870   -0.4450 C   0  0  2  0  0  0  0  0  0  0  0  0
   -4.2930    0.4350    1.9390 C   0  0  0  0  0  0  0  0  0  0  0  0
   -3.6130    1.1360    2.4340 H   0  0  0  0  0  0  0  0  0  0  0  0
   -4.0280   -0.5760    2.2640 H   0  0  0  0  0  0  0  0  0  0  0  0
   -5.2890    0.6440    2.3430 H   0  0  0  0  0  0  0  0  0  0  0  0
    4.6520    2.1680   -0.8880 C   0  0  0  0  0  0  0  0  0  0  0  0
    3.5560    2.1840   -0.8550 H   0  0  0  0  0  0  0  0  0  0  0  0
   -8.2380    2.1370   -0.1160 O   0  0  0  0  0  0  0  0  0  0  0  0
   -8.3110    3.0620   -0.4070 H   0  0  0  0  0  0  0  0  0  0  0  0
    6.6960    1.1520    0.3260 C   0  0  0  0  0  0  0  0  0  0  0  0
    7.1330    0.7380   -0.5890 H   0  0  0  0  0  0  0  0  0  0  0  0
    7.0800    2.1720    0.4300 H   0  0  0  0  0  0  0  0  0  0  0  0
    2.8080   -2.5310    1.2210 C   0  0  0  0  0  0  0  0  0  0  0  0
    3.8730   -2.7780    1.2990 H   0  0  0  0  0  0  0  0  0  0  0  0
    2.2720   -3.4780    1.3010 H   0  0  0  0  0  0  0  0  0  0  0  0
    2.5620   -1.9220    2.0950 H   0  0  0  0  0  0  0  0  0  0  0  0
    5.0880    3.6150   -0.6220 C   0  0  0  0  0  0  0  0  0  0  0  0
    6.1610    3.7590   -0.7860 H   0  0  0  0  0  0  0  0  0  0  0  0
    4.8500    3.9130    0.4040 H   0  0  0  0  0  0  0  0  0  0  0  0
    4.5640    4.3000   -1.2970 H   0  0  0  0  0  0  0  0  0  0  0  0
    5.0640    1.7620   -2.3060 C   0  0  0  0  0  0  0  0  0  0  0  0
    6.1510    1.7680   -2.4310 H   0  0  0  0  0  0  0  0  0  0  0  0
    4.6450    2.4600   -3.0400 H   0  0  0  0  0  0  0  0  0  0  0  0
    4.6950    0.7650   -2.5620 H   0  0  0  0  0  0  0  0  0  0  0  0
    7.2230    0.3580    1.5160 C   0  0  0  0  0  0  0  0  0  0  0  0
    7.0540   -0.7150    1.3940 H   0  0  0  0  0  0  0  0  0  0  0  0
    6.7510    0.6840    2.4490 H   0  0  0  0  0  0  0  0  0  0  0  0
    8.3030    0.5070    1.6150 H   0  0  0  0  0  0  0  0  0  0  0  0
   -2.8070    0.4410   -1.2310 H   0  0  0  0  0  0  0  0  0  0  0  0
   -1.2260   -1.4060   -1.7210 H   0  0  0  0  0  0  0  0  0  0  0  0
   -2.8240   -1.8050    0.8340 H   0  0  0  0  0  0  0  0  0  0  0  0
    1.1060   -1.3580   -1.6050 H   0  0  0  0  0  0  0  0  0  0  0  0
    3.1230   -2.3150   -0.8590 H   0  0  0  0  0  0  0  0  0  0  0  0
    4.7660    1.5670    1.1740 H   0  0  0  0  0  0  0  0  0  0  0  0
   -6.8080    1.7690   -1.5330 H   0  0  0  0  0  0  0  0  0  0  0  0
  1  4  1  0  0  0  0
  1  7  1  0  0  0  0
  1 10  1  0  0  0  0
  1 38  1  0  0  0  0
  2  3  1  0  0  0  0
  2  5  1  0  0  0  0
  2 22  1  0  0  0  0
  2 47  1  0  0  0  0
  3  8  2  0  0  0  0
  3 28  1  0  0  0  0
  4  6  1  0  0  0  0
  4 19  1  0  0  0  0
  4 75  1  0  0  0  0
  5  6  1  0  0  0  0
  5 16  1  0  0  0  0
  5 74  1  0  0  0  0
  6 13  1  0  0  0  0
  6 76  1  0  0  0  0
  7 25  1  0  0  0  0
  7 31  1  0  0  0  0
  7 77  1  0  0  0  0
  8  9  1  0  0  0  0
  8 13  1  0  0  0  0
 10 11  1  0  0  0  0
 10 12  1  0  0  0  0
 10 16  1  0  0  0  0
 13 14  1  0  0  0  0
 13 15  1  0  0  0  0
 16 17  1  0  0  0  0
 16 18  1  0  0  0  0
 19 20  1  0  0  0  0
 19 21  1  0  0  0  0
 19 25  1  0  0  0  0
 22 23  1  0  0  0  0
 22 24  1  0  0  0  0
 22 43  1  0  0  0  0
 25 26  1  0  0  0  0
 25 27  1  0  0  0  0
 28 29  1  0  0  0  0
 28 30  1  0  0  0  0
 28 46  1  0  0  0  0
 31 32  1  0  0  0  0
 31 58  1  0  0  0  0
 31 78  1  0  0  0  0
 32 33  1  0  0  0  0
 32 34  1  0  0  0  0
 32 35  1  0  0  0  0
 35 36  1  0  0  0  0
 35 37  1  0  0  0  0
 35 42  1  0  0  0  0
 38 39  1  0  0  0  0
 38 40  1  0  0  0  0
 38 41  1  0  0  0  0
 42 51  1  0  0  0  0
 42 55  1  0  0  0  0
 42 79  1  0  0  0  0
 43 44  1  0  0  0  0
 43 45  1  0  0  0  0
 43 46  1  0  0  0  0
 46 53  1  0  0  0  0
 46 80  1  0  0  0  0
 47 48  1  0  0  0  0
 47 49  1  0  0  0  0
 47 50  1  0  0  0  0
 51 52  1  0  0  0  0
 51 62  1  0  0  0  0
 51 66  1  0  0  0  0
 53 54  1  0  0  0  0
 55 56  1  0  0  0  0
 55 57  1  0  0  0  0
 55 70  1  0  0  0  0
 58 59  1  0  0  0  0
 58 60  1  0  0  0  0
 58 61  1  0  0  0  0
 62 63  1  0  0  0  0
 62 64  1  0  0  0  0
 62 65  1  0  0  0  0
 66 67  1  0  0  0  0
 66 68  1  0  0  0  0
 66 69  1  0  0  0  0
 70 71  1  0  0  0  0
 70 72  1  0  0  0  0
 70 73  1  0  0  0  0
M  END
>  <IDNUMBER>
AA-504/07226009

>  <NAME>
Beta-Sitosterol

>  <ADD_INFO>
http://www.specs.net/enter.php?specsid=AA-504/07226009

>  <H_ACCEPTORS>
1

>  <H_DONORS>
1

>  <ROTATABLE_BONDS>
6

>  <LOGP>
9.6499996

>  <LOGS>
-9.9499998

>  <TPSA>
20.23

>  <PRICE>
N07

$$$$
AA-504/07617049
  MOE2011           3D

 59 62  0  0  1  0  0  0  0  0999 V2000
    1.7270   -1.3530    0.5900 C   0  0  1  0  0  0  0  0  0  0  0  0
    4.0460   -1.2650   -0.5310 C   0  0  0  0  0  0  0  0  0  0  0  0
   -0.6430   -1.8850   -0.0130 C   0  0  0  0  0  0  0  0  0  0  0  0
    0.4260   -2.1840    0.7630 C   0  0  0  0  0  0  0  0  0  0  0  0
    2.7500   -2.0010   -0.3650 C   0  0  0  0  0  0  0  0  0  0  0  0
    1.4480    0.0640    0.0740 C   0  0  3  0  0  0  0  0  0  0  0  0
    4.0540    0.1020   -0.4730 C   0  0  0  0  0  0  0  0  0  0  0  0
   -1.9400   -2.6210    0.1180 C   0  0  0  0  0  0  0  0  0  0  0  0
   -3.1800   -1.8090    0.0110 C   0  0  0  0  0  0  0  0  0  0  0  0
   -3.1390   -0.4230   -0.2610 C   0  0  0  0  0  0  0  0  0  0  0  0
    2.7510    0.8890   -0.1490 C   0  0  2  0  0  0  0  0  0  0  0  0
   -0.7140   -0.7590   -1.0100 C   0  0  3  0  0  0  0  0  0  0  0  0
    0.6210   -0.0270   -1.2260 C   0  0  0  0  0  0  0  0  0  0  0  0
    0.4330    0.9770   -1.6270 H   0  0  0  0  0  0  0  0  0  0  0  0
    1.1950   -0.5540   -1.9990 H   0  0  0  0  0  0  0  0  0  0  0  0
   -4.3490    0.3190   -0.2880 C   0  0  0  0  0  0  0  0  0  0  0  0
   -1.8010    0.2290   -0.5400 C   0  0  0  0  0  0  0  0  0  0  0  0
   -1.9250    0.9770   -1.3330 H   0  0  0  0  0  0  0  0  0  0  0  0
   -1.4730    0.7420    0.3720 H   0  0  0  0  0  0  0  0  0  0  0  0
    5.2890   -2.0740   -0.8320 C   0  0  0  0  0  0  0  0  0  0  0  0
   -5.5610   -0.3870   -0.1190 C   0  0  0  0  0  0  0  0  0  0  0  0
   -6.5080    0.1490   -0.1330 H   0  0  0  0  0  0  0  0  0  0  0  0
   -4.4070   -2.4640    0.1870 C   0  0  0  0  0  0  0  0  0  0  0  0
    2.5200   -2.9950   -1.0540 O   0  0  0  0  0  0  0  0  0  0  0  0
   -2.0660   -3.8370    0.2530 O   0  0  0  0  0  0  0  0  0  0  0  0
    2.8470    1.9490    1.0060 N   0  3  0  0  0  0  0  0  0  0  0  0
    1.8940    2.2970    1.1390 H   0  0  0  0  0  0  0  0  0  0  0  0
   -4.4010    1.6970   -0.4610 N   0  0  0  0  0  0  0  0  0  0  0  0
    2.3270   -1.2750    1.8910 O   0  0  0  0  0  0  0  0  0  0  0  0
    1.8960   -2.0750    2.3020 H   0  0  0  0  0  0  0  0  0  0  0  0
    5.3310   -3.2980   -0.7730 O   0  0  0  0  0  0  0  0  0  0  0  0
    0.5500   -2.9990    1.7270 O   0  5  0  0  0  0  0  0  0  0  0  0
    5.0160    0.8960   -0.7140 O   0  5  0  0  0  0  0  0  0  0  0  0
   -5.5950   -1.7620    0.1130 C   0  0  0  0  0  0  0  0  0  0  0  0
   -6.5430   -2.2730    0.2510 H   0  0  0  0  0  0  0  0  0  0  0  0
    6.3970   -1.3450   -1.1550 N   0  0  0  0  0  0  0  0  0  0  0  0
    7.2770   -1.7770   -1.3820 H   0  0  0  0  0  0  0  0  0  0  0  0
    6.2780   -0.3190   -1.1430 H   0  0  0  0  0  0  0  0  0  0  0  0
   -4.4860   -3.8110    0.4360 O   0  0  0  0  0  0  0  0  0  0  0  0
   -3.5510   -4.1500    0.4390 H   0  0  0  0  0  0  0  0  0  0  0  0
    3.2910    1.3940    2.3280 C   0  0  0  0  0  0  0  0  0  0  0  0
    4.1620    0.7510    2.1920 H   0  0  0  0  0  0  0  0  0  0  0  0
    2.4470    0.8720    2.7770 H   0  0  0  0  0  0  0  0  0  0  0  0
    3.5470    2.2340    2.9810 H   0  0  0  0  0  0  0  0  0  0  0  0
    3.6550    3.1600    0.6310 C   0  0  0  0  0  0  0  0  0  0  0  0
    4.7190    2.9610    0.7700 H   0  0  0  0  0  0  0  0  0  0  0  0
    3.3520    3.9690    1.3040 H   0  0  0  0  0  0  0  0  0  0  0  0
    3.4170    3.4480   -0.3970 H   0  0  0  0  0  0  0  0  0  0  0  0
   -5.3510    2.2720   -1.3980 C   0  0  0  0  0  0  0  0  0  0  0  0
   -5.0180    3.2620   -1.7300 H   0  0  0  0  0  0  0  0  0  0  0  0
   -6.3340    2.3920   -0.9300 H   0  0  0  0  0  0  0  0  0  0  0  0
   -5.4560    1.6510   -2.2950 H   0  0  0  0  0  0  0  0  0  0  0  0
   -3.5560    2.5930    0.3100 C   0  0  0  0  0  0  0  0  0  0  0  0
   -4.1100    3.5020    0.5720 H   0  0  0  0  0  0  0  0  0  0  0  0
   -2.6790    2.8980   -0.2680 H   0  0  0  0  0  0  0  0  0  0  0  0
   -3.2300    2.1400    1.2530 H   0  0  0  0  0  0  0  0  0  0  0  0
    0.8270    0.5840    0.8160 H   0  0  0  0  0  0  0  0  0  0  0  0
    2.5470    1.5230   -1.0260 H   0  0  0  0  0  0  0  0  0  0  0  0
   -1.0210   -1.1730   -1.9820 H   0  0  0  0  0  0  0  0  0  0  0  0
  1  4  1  0  0  0  0
  1  5  1  0  0  0  0
  1  6  1  0  0  0  0
  1 29  1  0  0  0  0
  2  5  1  0  0  0  0
  2  7  2  0  0  0  0
  2 20  1  0  0  0  0
  3  4  2  0  0  0  0
  3  8  1  0  0  0  0
  3 12  1  0  0  0  0
  4 32  1  0  0  0  0
  5 24  2  0  0  0  0
  6 11  1  0  0  0  0
  6 13  1  0  0  0  0
  6 57  1  0  0  0  0
  7 11  1  0  0  0  0
  7 33  1  0  0  0  0
  8  9  1  0  0  0  0
  8 25  2  0  0  0  0
  9 10  2  0  0  0  0
  9 23  1  0  0  0  0
 10 16  1  0  0  0  0
 10 17  1  0  0  0  0
 11 26  1  0  0  0  0
 11 58  1  0  0  0  0
 12 13  1  0  0  0  0
 12 17  1  0  0  0  0
 12 59  1  0  0  0  0
 13 14  1  0  0  0  0
 13 15  1  0  0  0  0
 16 21  2  0  0  0  0
 16 28  1  0  0  0  0
 17 18  1  0  0  0  0
 17 19  1  0  0  0  0
 20 31  2  0  0  0  0
 20 36  1  0  0  0  0
 21 22  1  0  0  0  0
 21 34  1  0  0  0  0
 23 34  2  0  0  0  0
 23 39  1  0  0  0  0
 26 27  1  0  0  0  0
 26 41  1  0  0  0  0
 26 45  1  0  0  0  0
 28 49  1  0  0  0  0
 28 53  1  0  0  0  0
 29 30  1  0  0  0  0
 34 35  1  0  0  0  0
 36 37  1  0  0  0  0
 36 38  1  0  0  0  0
 39 40  1  0  0  0  0
 41 42  1  0  0  0  0
 41 43  1  0  0  0  0
 41 44  1  0  0  0  0
 45 46  1  0  0  0  0
 45 47  1  0  0  0  0
 45 48  1  0  0  0  0
 49 50  1  0  0  0  0
 49 51  1  0  0  0  0
 49 52  1  0  0  0  0
 53 54  1  0  0  0  0
 53 55  1  0  0  0  0
 53 56  1  0  0  0  0
M  CHG  1  26   1
M  CHG  1  32  -1
M  CHG  1  33  -1
M  END
>  <IDNUMBER>
AA-504/07617049

>  <NAME>
4,7-bis(dimethylamino)-3,10,12,12a-tetrahydroxy-1,11-dioxo-1,4,4a,5,5a,6,11,12a-octahydro-2-naphthacenecarboxamide

>  <ADD_INFO>
http://www.specs.net/enter.php?specsid=AA-504/07617049

>  <H_ACCEPTORS>
9

>  <H_DONORS>
5

>  <ROTATABLE_BONDS>
3

>  <LOGP>
-0.079999998

>  <LOGS>
-3.78

>  <TPSA>
164.63

>  <PRICE>
N05

$$$$
AA-504/20833001
  MOE2011           3D

 20 22  0  0  0  0  0  0  0  0999 V2000
    0.3720   -0.3940   -0.0030 C   0  0  0  0  0  0  0  0  0  0  0  0
   -0.9770   -0.7860   -0.0020 C   0  0  0  0  0  0  0  0  0  0  0  0
    1.3890   -1.3780   -0.0030 O   0  0  0  0  0  0  0  0  0  0  0  0
    2.7350   -1.0400    0.0010 C   0  0  0  0  0  0  0  0  0  0  0  0
    2.1150    1.3420   -0.0010 C   0  0  0  0  0  0  0  0  0  0  0  0
    2.3810    2.3940   -0.0010 H   0  0  0  0  0  0  0  0  0  0  0  0
    0.7080    0.9670   -0.0020 C   0  0  0  0  0  0  0  0  0  0  0  0
   -1.9430    0.2130    0.0010 C   0  0  0  0  0  0  0  0  0  0  0  0
    3.0590    0.3970    0.0010 C   0  0  0  0  0  0  0  0  0  0  0  0
    4.1130    0.6490    0.0020 H   0  0  0  0  0  0  0  0  0  0  0  0
   -1.6910   -2.0130   -0.0030 C   0  0  0  0  0  0  0  0  0  0  0  0
   -1.2780   -3.0130   -0.0050 H   0  0  0  0  0  0  0  0  0  0  0  0
   -3.0270   -1.6850    0.0010 C   0  0  0  0  0  0  0  0  0  0  0  0
   -3.9400   -2.2640    0.0030 H   0  0  0  0  0  0  0  0  0  0  0  0
   -3.1890   -0.3350    0.0030 O   0  0  0  0  0  0  0  0  0  0  0  0
    3.6240   -1.8840    0.0040 O   0  0  0  0  0  0  0  0  0  0  0  0
   -0.3020    1.9370   -0.0010 C   0  0  0  0  0  0  0  0  0  0  0  0
   -0.0470    2.9960    0.0000 H   0  0  0  0  0  0  0  0  0  0  0  0
   -1.6570    1.5780    0.0020 C   0  0  0  0  0  0  0  0  0  0  0  0
   -2.4460    2.3200    0.0050 H   0  0  0  0  0  0  0  0  0  0  0  0
  1  2  2  0  0  0  0
  1  3  1  0  0  0  0
  1  7  1  0  0  0  0
  2  8  1  0  0  0  0
  2 11  1  0  0  0  0
  3  4  1  0  0  0  0
  4  9  1  0  0  0  0
  4 16  2  0  0  0  0
  5  6  1  0  0  0  0
  5  7  1  0  0  0  0
  5  9  2  0  0  0  0
  7 17  2  0  0  0  0
  8 15  1  0  0  0  0
  8 19  2  0  0  0  0
  9 10  1  0  0  0  0
 11 12  1  0  0  0  0
 11 13  2  0  0  0  0
 13 14  1  0  0  0  0
 13 15  1  0  0  0  0
 17 18  1  0  0  0  0
 17 19  1  0  0  0  0
 19 20  1  0  0  0  0
M  END
>  <IDNUMBER>
AA-504/20833001

>  <NAME>
Angelicin (Isopsoralen)

>  <ADD_INFO>
http://www.specs.net/enter.php?specsid=AA-504/20833001

>  <H_ACCEPTORS>
1

>  <H_DONORS>
0

>  <ROTATABLE_BONDS>
0

>  <LOGP>
2.0799999

>  <LOGS>
-2.3399999

>  <TPSA>
39.439999

>  <PRICE>
N07

$$$$
AA-504/20833002
  MOE2011           3D

 20 22  0  0  0  0  0  0  0  0999 V2000
   -0.8360   -0.8000   -0.0010 C   0  0  0  0  0  0  0  0  0  0  0  0
   -2.0950   -1.4430   -0.0010 O   0  0  0  0  0  0  0  0  0  0  0  0
    0.2860   -1.6320   -0.0020 C   0  0  0  0  0  0  0  0  0  0  0  0
    0.2140   -2.7110   -0.0030 H   0  0  0  0  0  0  0  0  0  0  0  0
   -0.7510    0.5940   -0.0010 C   0  0  0  0  0  0  0  0  0  0  0  0
   -3.2800   -0.7190    0.0010 C   0  0  0  0  0  0  0  0  0  0  0  0
    1.5120   -0.9750   -0.0010 C   0  0  0  0  0  0  0  0  0  0  0  0
   -1.9810    1.3720   -0.0020 C   0  0  0  0  0  0  0  0  0  0  0  0
   -1.9210    2.4550   -0.0040 H   0  0  0  0  0  0  0  0  0  0  0  0
    1.6610    0.4090    0.0010 C   0  0  0  0  0  0  0  0  0  0  0  0
   -3.1630    0.7490   -0.0020 C   0  0  0  0  0  0  0  0  0  0  0  0
   -4.0950    1.3020   -0.0040 H   0  0  0  0  0  0  0  0  0  0  0  0
    0.5070    1.2160    0.0010 C   0  0  0  0  0  0  0  0  0  0  0  0
    0.5990    2.2980    0.0030 H   0  0  0  0  0  0  0  0  0  0  0  0
    2.7320   -1.5810   -0.0010 O   0  0  0  0  0  0  0  0  0  0  0  0
    3.6650   -0.5920    0.0010 C   0  0  0  0  0  0  0  0  0  0  0  0
    4.6930   -0.9240    0.0010 H   0  0  0  0  0  0  0  0  0  0  0  0
    3.0620    0.6440    0.0030 C   0  0  0  0  0  0  0  0  0  0  0  0
    3.5680    1.5990    0.0060 H   0  0  0  0  0  0  0  0  0  0  0  0
   -4.3780   -1.2620    0.0050 O   0  0  0  0  0  0  0  0  0  0  0  0
  1  2  1  0  0  0  0
  1  3  2  0  0  0  0
  1  5  1  0  0  0  0
  2  6  1  0  0  0  0
  3  4  1  0  0  0  0
  3  7  1  0  0  0  0
  5  8  1  0  0  0  0
  5 13  2  0  0  0  0
  6 11  1  0  0  0  0
  6 20  2  0  0  0  0
  7 10  2  0  0  0  0
  7 15  1  0  0  0  0
  8  9  1  0  0  0  0
  8 11  2  0  0  0  0
 10 13  1  0  0  0  0
 10 18  1  0  0  0  0
 11 12  1  0  0  0  0
 13 14  1  0  0  0  0
 15 16  1  0  0  0  0
 16 17  1  0  0  0  0
 16 18  2  0  0  0  0
 18 19  1  0  0  0  0
M  END
>  <IDNUMBER>
AA-504/20833002

>  <NAME>
Psoralen (Ficusin)

>  <ADD_INFO>
http://www.specs.net/enter.php?specsid=AA-504/20833002

>  <H_ACCEPTORS>
1

>  <H_DONORS>
0

>  <ROTATABLE_BONDS>
0

>  <LOGP>
1.67

>  <LOGS>
-1.99

>  <TPSA>
39.439999

>  <PRICE>
N07

$$$$
AA-504/20956006
  MOE2011           3D

 50 53  0  0  1  0  0  0  0  0999 V2000
   -1.5890   -0.4510   -0.3250 C   0  0  2  0  0  0  0  0  0  0  0  0
    0.8080    0.2310   -0.9890 C   0  0  3  0  0  0  0  0  0  0  0  0
    2.8540   -0.4770    0.4610 C   0  0  1  0  0  0  0  0  0  0  0  0
   -0.0520   -0.7520   -0.1620 C   0  0  3  0  0  0  0  0  0  0  0  0
    2.2750   -0.2560   -0.9540 C   0  0  3  0  0  0  0  0  0  0  0  0
   -1.9070    1.0590   -0.0760 C   0  0  3  0  0  0  0  0  0  0  0  0
   -0.6650    1.8780    0.2690 C   0  0  0  0  0  0  0  0  0  0  0  0
    0.5610    1.6930   -0.6010 C   0  0  0  0  0  0  0  0  0  0  0  0
    0.4290    2.3040   -1.5010 H   0  0  0  0  0  0  0  0  0  0  0  0
    1.4060    2.1130   -0.0510 H   0  0  0  0  0  0  0  0  0  0  0  0
    3.9210    0.6040    0.5590 C   0  0  0  0  0  0  0  0  0  0  0  0
    1.8310   -0.2720    1.5830 C   0  0  0  0  0  0  0  0  0  0  0  0
    2.2050   -0.6940    2.5250 H   0  0  0  0  0  0  0  0  0  0  0  0
    1.7250    0.8000    1.7960 H   0  0  0  0  0  0  0  0  0  0  0  0
    0.4370   -0.8370    1.3060 C   0  0  0  0  0  0  0  0  0  0  0  0
   -0.2490   -0.3180    1.9850 H   0  0  0  0  0  0  0  0  0  0  0  0
    0.4170   -1.8920    1.6120 H   0  0  0  0  0  0  0  0  0  0  0  0
   -2.4250   -1.3780    0.6050 C   0  0  0  0  0  0  0  0  0  0  0  0
   -2.2760   -2.4290    0.3260 H   0  0  0  0  0  0  0  0  0  0  0  0
   -2.0830   -1.3000    1.6430 H   0  0  0  0  0  0  0  0  0  0  0  0
    3.2780    0.6210   -1.7130 C   0  0  0  0  0  0  0  0  0  0  0  0
    3.9930   -0.0280   -2.2360 H   0  0  0  0  0  0  0  0  0  0  0  0
    2.8080    1.2520   -2.4740 H   0  0  0  0  0  0  0  0  0  0  0  0
   -2.9970    1.2710    0.9900 C   0  0  0  0  0  0  0  0  0  0  0  0
   -3.2820    2.3310    0.9980 H   0  0  0  0  0  0  0  0  0  0  0  0
   -2.6040    1.0460    1.9900 H   0  0  0  0  0  0  0  0  0  0  0  0
   -0.6630    2.7280    1.1610 O   0  0  0  0  0  0  0  0  0  0  0  0
    4.0320    1.4410   -0.6830 C   0  0  0  0  0  0  0  0  0  0  0  0
    3.5630    2.4120   -0.5090 H   0  0  0  0  0  0  0  0  0  0  0  0
    5.0780    1.5780   -0.9670 H   0  0  0  0  0  0  0  0  0  0  0  0
    4.6060    0.8010    1.5580 O   0  0  0  0  0  0  0  0  0  0  0  0
   -2.0000   -0.7920   -1.7890 C   0  0  0  0  0  0  0  0  0  0  0  0
   -1.7520   -1.8300   -2.0360 H   0  0  0  0  0  0  0  0  0  0  0  0
   -1.5060   -0.1460   -2.5210 H   0  0  0  0  0  0  0  0  0  0  0  0
   -3.0750   -0.6650   -1.9520 H   0  0  0  0  0  0  0  0  0  0  0  0
   -3.9260   -1.0710    0.6130 C   0  0  0  0  0  0  0  0  0  0  0  0
   -4.3640   -1.5860    1.4770 H   0  0  0  0  0  0  0  0  0  0  0  0
   -4.4020   -1.5110   -0.2710 H   0  0  0  0  0  0  0  0  0  0  0  0
   -4.2340    0.4230    0.7180 C   0  0  2  0  0  0  0  0  0  0  0  0
    3.5320   -1.8470    0.5690 C   0  0  0  0  0  0  0  0  0  0  0  0
    2.8060   -2.6580    0.4490 H   0  0  0  0  0  0  0  0  0  0  0  0
    4.0210   -1.9740    1.5410 H   0  0  0  0  0  0  0  0  0  0  0  0
    4.3070   -1.9700   -0.1970 H   0  0  0  0  0  0  0  0  0  0  0  0
   -4.8180    0.8720   -0.5050 O   0  0  0  0  0  0  0  0  0  0  0  0
   -5.6640    0.4030   -0.6140 H   0  0  0  0  0  0  0  0  0  0  0  0
    0.5140    0.1460   -2.0430 H   0  0  0  0  0  0  0  0  0  0  0  0
    0.1170   -1.7560   -0.5840 H   0  0  0  0  0  0  0  0  0  0  0  0
    2.2580   -1.2240   -1.4800 H   0  0  0  0  0  0  0  0  0  0  0  0
   -2.2750    1.5140   -1.0070 H   0  0  0  0  0  0  0  0  0  0  0  0
   -4.9750    0.5970    1.5060 H   0  0  0  0  0  0  0  0  0  0  0  0
  1  4  1  0  0  0  0
  1  6  1  0  0  0  0
  1 18  1  0  0  0  0
  1 32  1  0  0  0  0
  2  4  1  0  0  0  0
  2  5  1  0  0  0  0
  2  8  1  0  0  0  0
  2 46  1  0  0  0  0
  3  5  1  0  0  0  0
  3 11  1  0  0  0  0
  3 12  1  0  0  0  0
  3 40  1  0  0  0  0
  4 15  1  0  0  0  0
  4 47  1  0  0  0  0
  5 21  1  0  0  0  0
  5 48  1  0  0  0  0
  6  7  1  0  0  0  0
  6 24  1  0  0  0  0
  6 49  1  0  0  0  0
  7  8  1  0  0  0  0
  7 27  2  0  0  0  0
  8  9  1  0  0  0  0
  8 10  1  0  0  0  0
 11 28  1  0  0  0  0
 11 31  2  0  0  0  0
 12 13  1  0  0  0  0
 12 14  1  0  0  0  0
 12 15  1  0  0  0  0
 15 16  1  0  0  0  0
 15 17  1  0  0  0  0
 18 19  1  0  0  0  0
 18 20  1  0  0  0  0
 18 36  1  0  0  0  0
 21 22  1  0  0  0  0
 21 23  1  0  0  0  0
 21 28  1  0  0  0  0
 24 25  1  0  0  0  0
 24 26  1  0  0  0  0
 24 39  1  0  0  0  0
 28 29  1  0  0  0  0
 28 30  1  0  0  0  0
 32 33  1  0  0  0  0
 32 34  1  0  0  0  0
 32 35  1  0  0  0  0
 36 37  1  0  0  0  0
 36 38  1  0  0  0  0
 36 39  1  0  0  0  0
 39 44  1  0  0  0  0
 39 50  1  0  0  0  0
 40 41  1  0  0  0  0
 40 42  1  0  0  0  0
 40 43  1  0  0  0  0
 44 45  1  0  0  0  0
M  END
>  <IDNUMBER>
AA-504/20956006

>  <NAME>
3-hydroxyandrostane-6,17-dione

>  <ADD_INFO>
http://www.specs.net/enter.php?specsid=AA-504/20956006

>  <H_ACCEPTORS>
3

>  <H_DONORS>
1

>  <ROTATABLE_BONDS>
0

>  <LOGP>
1.72

>  <LOGS>
-2.3800001

>  <TPSA>
54.369999

>  <PRICE>
N04

$$$$
AA-504/20956007
  MOE2011           3D

 54 57  0  0  1  0  0  0  0  0999 V2000
   -1.5440   -0.4850   -0.2410 C   0  0  2  0  0  0  0  0  0  0  0  0
    0.5750    0.6580    0.8480 C   0  0  3  0  0  0  0  0  0  0  0  0
   -0.0630   -0.6590    0.3050 C   0  0  3  0  0  0  0  0  0  0  0  0
    2.8120    0.1820   -0.4680 C   0  0  2  0  0  0  0  0  0  0  0  0
    2.1180    0.6700    0.8420 C   0  0  3  0  0  0  0  0  0  0  0  0
   -2.2210    0.6760    0.5530 C   0  0  1  0  0  0  0  0  0  0  0  0
    0.0060    1.9070    0.1650 C   0  0  0  0  0  0  0  0  0  0  0  0
    0.2790    1.9290   -0.8950 H   0  0  0  0  0  0  0  0  0  0  0  0
    0.4680    2.8090    0.5880 H   0  0  0  0  0  0  0  0  0  0  0  0
   -1.5120    2.0310    0.3390 C   0  0  1  0  0  0  0  0  0  0  0  0
    1.8490   -0.5870   -1.3960 C   0  0  0  0  0  0  0  0  0  0  0  0
    1.2850    0.1110   -2.0240 H   0  0  0  0  0  0  0  0  0  0  0  0
    2.4240   -1.2120   -2.0910 H   0  0  0  0  0  0  0  0  0  0  0  0
    0.8710   -1.4650   -0.6210 C   0  0  0  0  0  0  0  0  0  0  0  0
    1.4380   -2.1760   -0.0070 H   0  0  0  0  0  0  0  0  0  0  0  0
    0.3080   -2.0980   -1.3130 H   0  0  0  0  0  0  0  0  0  0  0  0
   -2.3250   -1.8060    0.0410 C   0  0  0  0  0  0  0  0  0  0  0  0
   -1.9240   -2.6250   -0.5690 H   0  0  0  0  0  0  0  0  0  0  0  0
   -2.1790   -2.1050    1.0870 H   0  0  0  0  0  0  0  0  0  0  0  0
    2.7170   -0.1910    1.9650 C   0  0  0  0  0  0  0  0  0  0  0  0
    2.6860    0.3210    2.9320 H   0  0  0  0  0  0  0  0  0  0  0  0
    2.1900   -1.1450    2.0740 H   0  0  0  0  0  0  0  0  0  0  0  0
    3.9500   -0.7650    0.0280 C   0  0  2  0  0  0  0  0  0  0  0  0
   -3.7400    0.7710    0.3220 C   0  0  0  0  0  0  0  0  0  0  0  0
   -3.9740    1.0950   -0.7000 H   0  0  0  0  0  0  0  0  0  0  0  0
   -4.1670    1.5460    0.9720 H   0  0  0  0  0  0  0  0  0  0  0  0
    4.1400   -0.4270    1.4990 C   0  0  0  0  0  0  0  0  0  0  0  0
    4.6310   -1.2370    2.0470 H   0  0  0  0  0  0  0  0  0  0  0  0
    4.7570    0.4720    1.6210 H   0  0  0  0  0  0  0  0  0  0  0  0
   -1.5950   -0.2200   -1.7680 C   0  0  0  0  0  0  0  0  0  0  0  0
   -1.2990   -1.1020   -2.3440 H   0  0  0  0  0  0  0  0  0  0  0  0
   -0.9450    0.5990   -2.0780 H   0  0  0  0  0  0  0  0  0  0  0  0
   -2.6030    0.0370   -2.1070 H   0  0  0  0  0  0  0  0  0  0  0  0
   -2.0390    2.7200   -0.7920 O   0  0  0  0  0  0  0  0  0  0  0  0
   -1.6330    3.6030   -0.8160 H   0  0  0  0  0  0  0  0  0  0  0  0
   -3.8290   -1.6960   -0.2010 C   0  0  0  0  0  0  0  0  0  0  0  0
   -4.3150   -2.6400    0.0760 H   0  0  0  0  0  0  0  0  0  0  0  0
   -4.0440   -1.5650   -1.2680 H   0  0  0  0  0  0  0  0  0  0  0  0
   -4.4420   -0.5550    0.6040 C   0  0  2  0  0  0  0  0  0  0  0  0
    3.3810    1.3860   -1.2450 C   0  0  0  0  0  0  0  0  0  0  0  0
    2.5920    2.1000   -1.5040 H   0  0  0  0  0  0  0  0  0  0  0  0
    3.8550    1.0680   -2.1800 H   0  0  0  0  0  0  0  0  0  0  0  0
    4.1300    1.9240   -0.6530 H   0  0  0  0  0  0  0  0  0  0  0  0
    5.1610   -0.6130   -0.6900 O   0  0  0  0  0  0  0  0  0  0  0  0
    5.8240   -1.1860   -0.2690 H   0  0  0  0  0  0  0  0  0  0  0  0
   -5.8200   -0.4220    0.2730 O   0  0  0  0  0  0  0  0  0  0  0  0
   -6.2480   -1.2760    0.4520 H   0  0  0  0  0  0  0  0  0  0  0  0
   -2.0960    0.4300    1.6190 H   0  0  0  0  0  0  0  0  0  0  0  0
    0.2740    0.7430    1.9030 H   0  0  0  0  0  0  0  0  0  0  0  0
   -0.1560   -1.2890    1.2030 H   0  0  0  0  0  0  0  0  0  0  0  0
    2.4470    1.6970    1.0540 H   0  0  0  0  0  0  0  0  0  0  0  0
   -1.7250    2.6590    1.2130 H   0  0  0  0  0  0  0  0  0  0  0  0
    3.6520   -1.8160   -0.0590 H   0  0  0  0  0  0  0  0  0  0  0  0
   -4.3780   -0.7790    1.6750 H   0  0  0  0  0  0  0  0  0  0  0  0
  1  3  1  0  0  0  0
  1  6  1  0  0  0  0
  1 17  1  0  0  0  0
  1 30  1  0  0  0  0
  2  3  1  0  0  0  0
  2  5  1  0  0  0  0
  2  7  1  0  0  0  0
  2 49  1  0  0  0  0
  3 14  1  0  0  0  0
  3 50  1  0  0  0  0
  4  5  1  0  0  0  0
  4 11  1  0  0  0  0
  4 23  1  0  0  0  0
  4 40  1  0  0  0  0
  5 20  1  0  0  0  0
  5 51  1  0  0  0  0
  6 10  1  0  0  0  0
  6 24  1  0  0  0  0
  6 48  1  0  0  0  0
  7  8  1  0  0  0  0
  7  9  1  0  0  0  0
  7 10  1  0  0  0  0
 10 34  1  0  0  0  0
 10 52  1  0  0  0  0
 11 12  1  0  0  0  0
 11 13  1  0  0  0  0
 11 14  1  0  0  0  0
 14 15  1  0  0  0  0
 14 16  1  0  0  0  0
 17 18  1  0  0  0  0
 17 19  1  0  0  0  0
 17 36  1  0  0  0  0
 20 21  1  0  0  0  0
 20 22  1  0  0  0  0
 20 27  1  0  0  0  0
 23 27  1  0  0  0  0
 23 44  1  0  0  0  0
 23 53  1  0  0  0  0
 24 25  1  0  0  0  0
 24 26  1  0  0  0  0
 24 39  1  0  0  0  0
 27 28  1  0  0  0  0
 27 29  1  0  0  0  0
 30 31  1  0  0  0  0
 30 32  1  0  0  0  0
 30 33  1  0  0  0  0
 34 35  1  0  0  0  0
 36 37  1  0  0  0  0
 36 38  1  0  0  0  0
 36 39  1  0  0  0  0
 39 46  1  0  0  0  0
 39 54  1  0  0  0  0
 40 41  1  0  0  0  0
 40 42  1  0  0  0  0
 40 43  1  0  0  0  0
 44 45  1  0  0  0  0
 46 47  1  0  0  0  0
M  END
>  <IDNUMBER>
AA-504/20956007

>  <NAME>
androstane-3,6,17-triol

>  <ADD_INFO>
http://www.specs.net/enter.php?specsid=AA-504/20956007

>  <H_ACCEPTORS>
3

>  <H_DONORS>
3

>  <ROTATABLE_BONDS>
0

>  <LOGP>
2.45

>  <LOGS>
-3.54

>  <TPSA>
60.689999

>  <PRICE>
N04

$$$$
AA-504/20956008
  MOE2011           3D

 48 51  0  0  1  0  0  0  0  0999 V2000
    1.6920   -0.4520    0.1420 C   0  0  2  0  0  0  0  0  0  0  0  0
   -0.5750    0.8260    0.0450 C   0  0  3  0  0  0  0  0  0  0  0  0
   -2.7580   -0.4850    0.0530 C   0  0  1  0  0  0  0  0  0  0  0  0
    0.2000   -0.4720   -0.3690 C   0  0  3  0  0  0  0  0  0  0  0  0
   -1.9990    0.7340   -0.5120 C   0  0  3  0  0  0  0  0  0  0  0  0
    2.3730    0.8200   -0.4470 C   0  0  1  0  0  0  0  0  0  0  0  0
    1.5980    2.0660   -0.0460 C   0  0  0  0  0  0  0  0  0  0  0  0
    0.1410    2.0860   -0.4520 C   0  0  0  0  0  0  0  0  0  0  0  0
   -0.3250    2.9810   -0.0270 H   0  0  0  0  0  0  0  0  0  0  0  0
    0.0970    2.1690   -1.5440 H   0  0  0  0  0  0  0  0  0  0  0  0
   -4.1240   -0.1850   -0.5380 C   0  0  0  0  0  0  0  0  0  0  0  0
   -2.0580   -1.7430   -0.4490 C   0  0  0  0  0  0  0  0  0  0  0  0
   -2.5660   -2.6430   -0.0800 H   0  0  0  0  0  0  0  0  0  0  0  0
   -2.1110   -1.7960   -1.5440 H   0  0  0  0  0  0  0  0  0  0  0  0
   -0.5830   -1.7660   -0.0090 C   0  0  0  0  0  0  0  0  0  0  0  0
   -0.1090   -2.6310   -0.4870 H   0  0  0  0  0  0  0  0  0  0  0  0
   -0.5400   -1.9480    1.0690 H   0  0  0  0  0  0  0  0  0  0  0  0
    2.4710   -1.6830   -0.4030 C   0  0  0  0  0  0  0  0  0  0  0  0
    2.0760   -2.6110    0.0270 H   0  0  0  0  0  0  0  0  0  0  0  0
    2.3170   -1.7500   -1.4890 H   0  0  0  0  0  0  0  0  0  0  0  0
   -2.9660    1.8970   -0.3190 C   0  0  0  0  0  0  0  0  0  0  0  0
   -3.0140    2.2140    0.7290 H   0  0  0  0  0  0  0  0  0  0  0  0
   -2.6970    2.7720   -0.9190 H   0  0  0  0  0  0  0  0  0  0  0  0
    3.8580    0.9310   -0.1120 C   0  0  0  0  0  0  0  0  0  0  0  0
    4.0390    1.0870    0.9560 H   0  0  0  0  0  0  0  0  0  0  0  0
    4.2960    1.7860   -0.6410 H   0  0  0  0  0  0  0  0  0  0  0  0
    2.1240    3.0270    0.5110 O   0  0  0  0  0  0  0  0  0  0  0  0
    4.5780   -0.3220   -0.5530 C   0  0  0  0  0  0  0  0  0  0  0  0
   -4.3070    1.3040   -0.7790 C   0  0  0  0  0  0  0  0  0  0  0  0
   -4.4650    1.4720   -1.8480 H   0  0  0  0  0  0  0  0  0  0  0  0
   -5.1420    1.6960   -0.1940 H   0  0  0  0  0  0  0  0  0  0  0  0
   -4.9810   -1.0270   -0.7720 O   0  0  0  0  0  0  0  0  0  0  0  0
    5.6570   -0.2690   -1.1410 O   0  0  0  0  0  0  0  0  0  0  0  0
    3.9740   -1.6420   -0.1340 C   0  0  0  0  0  0  0  0  0  0  0  0
    4.4640   -2.4460   -0.6940 H   0  0  0  0  0  0  0  0  0  0  0  0
    4.1950   -1.7990    0.9270 H   0  0  0  0  0  0  0  0  0  0  0  0
    1.7540   -0.4650    1.6900 C   0  0  0  0  0  0  0  0  0  0  0  0
    1.3120   -1.3790    2.0990 H   0  0  0  0  0  0  0  0  0  0  0  0
    1.2320    0.3850    2.1360 H   0  0  0  0  0  0  0  0  0  0  0  0
    2.7810   -0.4250    2.0650 H   0  0  0  0  0  0  0  0  0  0  0  0
   -2.9380   -0.5170    1.5820 C   0  0  0  0  0  0  0  0  0  0  0  0
   -1.9880   -0.5480    2.1220 H   0  0  0  0  0  0  0  0  0  0  0  0
   -3.5100   -1.4050    1.8770 H   0  0  0  0  0  0  0  0  0  0  0  0
   -3.4980    0.3480    1.9550 H   0  0  0  0  0  0  0  0  0  0  0  0
    2.3010    0.7740   -1.5450 H   0  0  0  0  0  0  0  0  0  0  0  0
   -0.6240    0.8870    1.1370 H   0  0  0  0  0  0  0  0  0  0  0  0
    0.2480   -0.4650   -1.4700 H   0  0  0  0  0  0  0  0  0  0  0  0
   -1.9020    0.6100   -1.6040 H   0  0  0  0  0  0  0  0  0  0  0  0
  1  4  1  0  0  0  0
  1  6  1  0  0  0  0
  1 18  1  0  0  0  0
  1 37  1  0  0  0  0
  2  4  1  0  0  0  0
  2  5  1  0  0  0  0
  2  8  1  0  0  0  0
  2 46  1  0  0  0  0
  3  5  1  0  0  0  0
  3 11  1  0  0  0  0
  3 12  1  0  0  0  0
  3 41  1  0  0  0  0
  4 15  1  0  0  0  0
  4 47  1  0  0  0  0
  5 21  1  0  0  0  0
  5 48  1  0  0  0  0
  6  7  1  0  0  0  0
  6 24  1  0  0  0  0
  6 45  1  0  0  0  0
  7  8  1  0  0  0  0
  7 27  2  0  0  0  0
  8  9  1  0  0  0  0
  8 10  1  0  0  0  0
 11 29  1  0  0  0  0
 11 32  2  0  0  0  0
 12 13  1  0  0  0  0
 12 14  1  0  0  0  0
 12 15  1  0  0  0  0
 15 16  1  0  0  0  0
 15 17  1  0  0  0  0
 18 19  1  0  0  0  0
 18 20  1  0  0  0  0
 18 34  1  0  0  0  0
 21 22  1  0  0  0  0
 21 23  1  0  0  0  0
 21 29  1  0  0  0  0
 24 25  1  0  0  0  0
 24 26  1  0  0  0  0
 24 28  1  0  0  0  0
 28 33  2  0  0  0  0
 28 34  1  0  0  0  0
 29 30  1  0  0  0  0
 29 31  1  0  0  0  0
 34 35  1  0  0  0  0
 34 36  1  0  0  0  0
 37 38  1  0  0  0  0
 37 39  1  0  0  0  0
 37 40  1  0  0  0  0
 41 42  1  0  0  0  0
 41 43  1  0  0  0  0
 41 44  1  0  0  0  0
M  END
>  <IDNUMBER>
AA-504/20956008

>  <NAME>
androstane-3,6,17-trione

>  <ADD_INFO>
http://www.specs.net/enter.php?specsid=AA-504/20956008

>  <H_ACCEPTORS>
3

>  <H_DONORS>
0

>  <ROTATABLE_BONDS>
0

>  <LOGP>
1.21

>  <LOGS>
-2.4400001

>  <TPSA>
51.209999

>  <PRICE>
N04

$$$$
AA-504/20956010
  MOE2011           3D

 53 56  0  0  1  0  0  0  0  0999 V2000
    1.3420    0.0090    0.3960 C   0  0  1  0  0  0  0  0  0  0  0  0
    2.7070   -0.8410    0.5160 C   0  0  1  0  0  0  0  0  0  0  0  0
   -0.4620   -0.2630   -0.8810 C   0  0  3  0  0  0  0  0  0  0  0  0
    0.2210    0.9460    0.0220 C   0  0  3  0  0  0  0  0  0  0  0  0
   -2.7780    0.5920   -0.0640 C   0  0  2  0  0  0  0  0  0  0  0  0
   -1.9510   -0.5760   -0.6350 C   0  0  3  0  0  0  0  0  0  0  0  0
    1.9240   -2.0730   -0.3310 C   0  0  1  0  0  0  0  0  0  0  0  0
    0.4910   -1.6700   -1.1550 C   0  0  0  0  0  0  0  0  0  0  0  0
    0.7530   -1.6170   -2.2220 H   0  0  0  0  0  0  0  0  0  0  0  0
   -0.1610   -2.5470   -1.0770 H   0  0  0  0  0  0  0  0  0  0  0  0
   -2.1250    1.1680    1.2080 C   0  0  0  0  0  0  0  0  0  0  0  0
   -2.7420    1.9940    1.5900 H   0  0  0  0  0  0  0  0  0  0  0  0
   -2.1340    0.4320    2.0180 H   0  0  0  0  0  0  0  0  0  0  0  0
    4.1250   -0.3800    0.0280 C   0  0  0  0  0  0  0  0  0  0  0  0
    4.9580   -0.8030    0.6070 H   0  0  0  0  0  0  0  0  0  0  0  0
    4.3700   -0.7100   -0.9890 H   0  0  0  0  0  0  0  0  0  0  0  0
   -0.6980    1.6830    1.0230 C   0  0  0  0  0  0  0  0  0  0  0  0
   -0.2060    1.8160    1.9940 H   0  0  0  0  0  0  0  0  0  0  0  0
   -0.8000    2.7170    0.6600 H   0  0  0  0  0  0  0  0  0  0  0  0
    2.1070    0.5110   -1.0680 C   0  0  0  0  0  0  0  0  0  0  0  0
    2.5400   -0.2780   -1.6970 H   0  0  0  0  0  0  0  0  0  0  0  0
    1.4420    0.9080   -1.8530 H   0  0  0  0  0  0  0  0  0  0  0  0
   -2.2930   -1.7750    0.2620 C   0  0  0  0  0  0  0  0  0  0  0  0
   -2.3400   -2.6980   -0.3280 H   0  0  0  0  0  0  0  0  0  0  0  0
   -1.5600   -1.9440    1.0530 H   0  0  0  0  0  0  0  0  0  0  0  0
   -4.1000   -0.1240    0.3040 C   0  0  2  0  0  0  0  0  0  0  0  0
    3.2340   -1.6310    2.1440 Cl  0  0  0  0  0  0  0  0  0  0  0  0
   -3.6660   -1.4750    0.8780 C   0  0  0  0  0  0  0  0  0  0  0  0
   -3.5660   -1.4130    1.9680 H   0  0  0  0  0  0  0  0  0  0  0  0
   -4.3780   -2.2760    0.6540 H   0  0  0  0  0  0  0  0  0  0  0  0
    3.0020   -3.0420   -1.3840 Cl  0  0  0  0  0  0  0  0  0  0  0  0
    4.1930    1.1300    0.1150 C   0  0  2  0  0  0  0  0  0  0  0  0
    0.7840   -0.5810    1.7220 C   0  0  0  0  0  0  0  0  0  0  0  0
   -0.2790   -0.4280    1.8760 H   0  0  0  0  0  0  0  0  0  0  0  0
    1.2320   -0.0840    2.5930 H   0  0  0  0  0  0  0  0  0  0  0  0
    0.7780   -1.6690    1.8310 H   0  0  0  0  0  0  0  0  0  0  0  0
    3.1230    1.6430   -0.8190 C   0  0  0  0  0  0  0  0  0  0  0  0
    2.6400    2.5280   -0.3910 H   0  0  0  0  0  0  0  0  0  0  0  0
    3.5520    1.9580   -1.7780 H   0  0  0  0  0  0  0  0  0  0  0  0
   -2.9920    1.7040   -1.1030 C   0  0  0  0  0  0  0  0  0  0  0  0
   -2.0560    2.2040   -1.3690 H   0  0  0  0  0  0  0  0  0  0  0  0
   -3.6790    2.4660   -0.7180 H   0  0  0  0  0  0  0  0  0  0  0  0
   -3.4170    1.3150   -2.0350 H   0  0  0  0  0  0  0  0  0  0  0  0
   -4.8940   -0.3550   -0.8580 O   0  0  0  0  0  0  0  0  0  0  0  0
   -5.6850   -0.8470   -0.5780 H   0  0  0  0  0  0  0  0  0  0  0  0
    5.4720    1.5830   -0.2950 O   0  0  0  0  0  0  0  0  0  0  0  0
    5.4670    2.5550   -0.2530 H   0  0  0  0  0  0  0  0  0  0  0  0
   -0.4940    0.1850   -1.8890 H   0  0  0  0  0  0  0  0  0  0  0  0
    0.4630    1.7950   -0.6300 H   0  0  0  0  0  0  0  0  0  0  0  0
   -2.3660   -0.8340   -1.6230 H   0  0  0  0  0  0  0  0  0  0  0  0
    1.5890   -2.8200    0.3990 H   0  0  0  0  0  0  0  0  0  0  0  0
   -4.7050    0.4500    1.0140 H   0  0  0  0  0  0  0  0  0  0  0  0
    4.0210    1.4660    1.1440 H   0  0  0  0  0  0  0  0  0  0  0  0
  1  2  1  0  0  0  0
  1  4  1  0  0  0  0
  1 20  1  0  0  0  0
  1 33  1  0  0  0  0
  2  7  1  0  0  0  0
  2 14  1  0  0  0  0
  2 27  1  0  0  0  0
  3  4  1  0  0  0  0
  3  6  1  0  0  0  0
  3  8  1  0  0  0  0
  3 48  1  0  0  0  0
  4 17  1  0  0  0  0
  4 49  1  0  0  0  0
  5  6  1  0  0  0  0
  5 11  1  0  0  0  0
  5 26  1  0  0  0  0
  5 40  1  0  0  0  0
  6 23  1  0  0  0  0
  6 50  1  0  0  0  0
  7  8  1  0  0  0  0
  7 31  1  0  0  0  0
  7 51  1  0  0  0  0
  8  9  1  0  0  0  0
  8 10  1  0  0  0  0
 11 12  1  0  0  0  0
 11 13  1  0  0  0  0
 11 17  1  0  0  0  0
 14 15  1  0  0  0  0
 14 16  1  0  0  0  0
 14 32  1  0  0  0  0
 17 18  1  0  0  0  0
 17 19  1  0  0  0  0
 20 21  1  0  0  0  0
 20 22  1  0  0  0  0
 20 37  1  0  0  0  0
 23 24  1  0  0  0  0
 23 25  1  0  0  0  0
 23 28  1  0  0  0  0
 26 28  1  0  0  0  0
 26 44  1  0  0  0  0
 26 52  1  0  0  0  0
 28 29  1  0  0  0  0
 28 30  1  0  0  0  0
 32 37  1  0  0  0  0
 32 46  1  0  0  0  0
 32 53  1  0  0  0  0
 33 34  1  0  0  0  0
 33 35  1  0  0  0  0
 33 36  1  0  0  0  0
 37 38  1  0  0  0  0
 37 39  1  0  0  0  0
 40 41  1  0  0  0  0
 40 42  1  0  0  0  0
 40 43  1  0  0  0  0
 44 45  1  0  0  0  0
 46 47  1  0  0  0  0
M  END
>  <IDNUMBER>
AA-504/20956010

>  <NAME>
5,6-dichloroandrostane-3,17-diol

>  <ADD_INFO>
http://www.specs.net/enter.php?specsid=AA-504/20956010

>  <H_ACCEPTORS>
2

>  <H_DONORS>
2

>  <ROTATABLE_BONDS>
0

>  <LOGP>
4.3800001

>  <LOGS>
-5.5799999

>  <TPSA>
40.459999

>  <PRICE>
N04

$$$$
AA-504/20956011
  MOE2011           3D

 51 54  0  0  1  0  0  0  0  0999 V2000
    2.0920   -0.0890    0.5950 C   0  0  1  0  0  0  0  0  0  0  0  0
    3.4020   -0.5750    0.1740 C   0  0  0  0  0  0  0  0  0  0  0  0
    0.0520   -0.8850    0.3850 C   0  0  3  0  0  0  0  0  0  0  0  0
   -1.9590    0.6970   -0.2960 C   0  0  1  0  0  0  0  0  0  0  0  0
    0.7810    0.4420    1.0320 C   0  0  3  0  0  0  0  0  0  0  0  0
   -1.0570   -0.5380   -0.6370 C   0  0  3  0  0  0  0  0  0  0  0  0
    2.7980   -1.9860   -0.2980 C   0  0  0  0  0  0  0  0  0  0  0  0
    1.1070   -2.0970   -0.2670 C   0  0  0  0  0  0  0  0  0  0  0  0
    0.8170   -2.2560   -1.3120 H   0  0  0  0  0  0  0  0  0  0  0  0
    0.8870   -3.0150    0.2920 H   0  0  0  0  0  0  0  0  0  0  0  0
    4.6080   -0.0850   -0.1160 C   0  0  0  0  0  0  0  0  0  0  0  0
    5.4470   -0.6360   -0.5110 H   0  0  0  0  0  0  0  0  0  0  0  0
   -3.3570    0.0710    0.0320 C   0  0  2  0  0  0  0  0  0  0  0  0
   -1.4000    1.6000    0.8290 C   0  0  0  0  0  0  0  0  0  0  0  0
   -1.8900    2.5820    0.8080 H   0  0  0  0  0  0  0  0  0  0  0  0
   -1.6130    1.1850    1.8200 H   0  0  0  0  0  0  0  0  0  0  0  0
    0.1150    1.7800    0.7290 C   0  0  0  0  0  0  0  0  0  0  0  0
    0.4430    2.5050    1.4850 H   0  0  0  0  0  0  0  0  0  0  0  0
    0.3670    2.2440   -0.2240 H   0  0  0  0  0  0  0  0  0  0  0  0
    2.1520    0.5390   -0.9170 C   0  0  0  0  0  0  0  0  0  0  0  0
    2.4180   -0.1400   -1.7510 H   0  0  0  0  0  0  0  0  0  0  0  0
    1.1870    0.8810   -1.2930 H   0  0  0  0  0  0  0  0  0  0  0  0
   -2.0220   -1.7250   -0.8610 C   0  0  0  0  0  0  0  0  0  0  0  0
   -1.7840   -2.2690   -1.7810 H   0  0  0  0  0  0  0  0  0  0  0  0
   -1.9670   -2.4470   -0.0380 H   0  0  0  0  0  0  0  0  0  0  0  0
    4.4710    1.3580   -0.3950 C   0  0  0  0  0  0  0  0  0  0  0  0
   -3.4200   -1.1270   -0.9240 C   0  0  0  0  0  0  0  0  0  0  0  0
   -4.1880   -1.8550   -0.6420 H   0  0  0  0  0  0  0  0  0  0  0  0
   -3.6630   -0.8090   -1.9440 H   0  0  0  0  0  0  0  0  0  0  0  0
    3.5220   -2.8920   -0.6950 O   0  0  0  0  0  0  0  0  0  0  0  0
    5.4200    2.1230   -0.2860 O   0  0  0  0  0  0  0  0  0  0  0  0
    3.1050    1.7800   -0.9110 C   0  0  0  0  0  0  0  0  0  0  0  0
    2.7170    2.5680   -0.2590 H   0  0  0  0  0  0  0  0  0  0  0  0
    3.2120    2.1670   -1.9290 H   0  0  0  0  0  0  0  0  0  0  0  0
    2.4390   -0.9260    1.9580 C   0  0  0  0  0  0  0  0  0  0  0  0
    1.6020   -1.5520    2.3000 H   0  0  0  0  0  0  0  0  0  0  0  0
    2.6310   -0.1900    2.7560 H   0  0  0  0  0  0  0  0  0  0  0  0
    3.3080   -1.6070    2.0310 H   0  0  0  0  0  0  0  0  0  0  0  0
   -4.4120    0.9830   -0.2590 O   0  0  0  0  0  0  0  0  0  0  0  0
   -5.2540    0.5030   -0.1760 H   0  0  0  0  0  0  0  0  0  0  0  0
   -2.0620    1.5780   -1.5790 C   0  0  0  0  0  0  0  0  0  0  0  0
   -1.0790    1.9400   -1.8990 H   0  0  0  0  0  0  0  0  0  0  0  0
   -2.6910    2.4590   -1.4100 H   0  0  0  0  0  0  0  0  0  0  0  0
   -2.4850    1.0280   -2.4260 H   0  0  0  0  0  0  0  0  0  0  0  0
   -3.5510   -0.3950    1.4810 C   0  0  0  0  0  0  0  0  0  0  0  0
   -2.7320   -1.0250    1.8370 H   0  0  0  0  0  0  0  0  0  0  0  0
   -4.4820   -0.9670    1.5790 H   0  0  0  0  0  0  0  0  0  0  0  0
   -3.6620    0.4590    2.1580 H   0  0  0  0  0  0  0  0  0  0  0  0
   -0.4340   -1.3850    1.2360 H   0  0  0  0  0  0  0  0  0  0  0  0
    0.6290    0.3550    2.1190 H   0  0  0  0  0  0  0  0  0  0  0  0
   -0.5630   -0.3540   -1.5990 H   0  0  0  0  0  0  0  0  0  0  0  0
  1  2  1  0  0  0  0
  1  5  1  0  0  0  0
  1 20  1  0  0  0  0
  1 35  1  0  0  0  0
  2  7  1  0  0  0  0
  2 11  2  0  0  0  0
  3  5  1  0  0  0  0
  3  6  1  0  0  0  0
  3  8  1  0  0  0  0
  3 49  1  0  0  0  0
  4  6  1  0  0  0  0
  4 13  1  0  0  0  0
  4 14  1  0  0  0  0
  4 41  1  0  0  0  0
  5 17  1  0  0  0  0
  5 50  1  0  0  0  0
  6 23  1  0  0  0  0
  6 51  1  0  0  0  0
  7  8  1  0  0  0  0
  7 30  2  0  0  0  0
  8  9  1  0  0  0  0
  8 10  1  0  0  0  0
 11 12  1  0  0  0  0
 11 26  1  0  0  0  0
 13 27  1  0  0  0  0
 13 39  1  0  0  0  0
 13 45  1  0  0  0  0
 14 15  1  0  0  0  0
 14 16  1  0  0  0  0
 14 17  1  0  0  0  0
 17 18  1  0  0  0  0
 17 19  1  0  0  0  0
 20 21  1  0  0  0  0
 20 22  1  0  0  0  0
 20 32  1  0  0  0  0
 23 24  1  0  0  0  0
 23 25  1  0  0  0  0
 23 27  1  0  0  0  0
 26 31  2  0  0  0  0
 26 32  1  0  0  0  0
 27 28  1  0  0  0  0
 27 29  1  0  0  0  0
 32 33  1  0  0  0  0
 32 34  1  0  0  0  0
 35 36  1  0  0  0  0
 35 37  1  0  0  0  0
 35 38  1  0  0  0  0
 39 40  1  0  0  0  0
 41 42  1  0  0  0  0
 41 43  1  0  0  0  0
 41 44  1  0  0  0  0
 45 46  1  0  0  0  0
 45 47  1  0  0  0  0
 45 48  1  0  0  0  0
M  END
>  <IDNUMBER>
AA-504/20956011

>  <NAME>
17-hydroxy-17-methylandrost-4-ene-3,6-dione

>  <ADD_INFO>
http://www.specs.net/enter.php?specsid=AA-504/20956011

>  <H_ACCEPTORS>
3

>  <H_DONORS>
1

>  <ROTATABLE_BONDS>
0

>  <LOGP>
3.6900001

>  <LOGS>
-4.1500001

>  <TPSA>
54.369999

>  <PRICE>
N04

$$$$
AA-504/20956012
  MOE2011           3D

 53 56  0  0  1  0  0  0  0  0999 V2000
   -2.1690    0.1220    0.7930 C   0  0  2  0  0  0  0  0  0  0  0  0
    0.1460   -1.0560    0.3940 C   0  0  3  0  0  0  0  0  0  0  0  0
    2.2330    0.4920    0.1740 C   0  0  1  0  0  0  0  0  0  0  0  0
   -0.6180    0.2990    0.6500 C   0  0  3  0  0  0  0  0  0  0  0  0
    1.5130   -0.7910   -0.2780 C   0  0  3  0  0  0  0  0  0  0  0  0
   -2.6830   -0.6540   -0.4390 C   0  0  1  0  0  0  0  0  0  0  0  0
   -2.1070   -2.0490   -0.3970 C   0  0  0  0  0  0  0  0  0  0  0  0
   -0.5990   -2.1200   -0.4520 C   0  0  0  0  0  0  0  0  0  0  0  0
   -0.2850   -3.1200   -0.1300 H   0  0  0  0  0  0  0  0  0  0  0  0
   -0.3440   -2.0320   -1.5160 H   0  0  0  0  0  0  0  0  0  0  0  0
    3.5890    0.3370   -0.5940 C   0  0  2  0  0  0  0  0  0  0  0  0
    1.3550    1.7120   -0.1960 C   0  0  0  0  0  0  0  0  0  0  0  0
    1.4580    2.4900    0.5720 H   0  0  0  0  0  0  0  0  0  0  0  0
    1.6780    2.1890   -1.1250 H   0  0  0  0  0  0  0  0  0  0  0  0
   -0.1460    1.3740   -0.3540 C   0  0  0  0  0  0  0  0  0  0  0  0
   -0.3320    1.0330   -1.3800 H   0  0  0  0  0  0  0  0  0  0  0  0
   -0.7020    2.3090   -0.2390 H   0  0  0  0  0  0  0  0  0  0  0  0
   -2.9370    1.4740    0.9380 C   0  0  0  0  0  0  0  0  0  0  0  0
   -3.7080    1.3780    1.7170 H   0  0  0  0  0  0  0  0  0  0  0  0
   -2.2730    2.2680    1.2970 H   0  0  0  0  0  0  0  0  0  0  0  0
    2.5710   -1.8860   -0.1550 C   0  0  0  0  0  0  0  0  0  0  0  0
    2.5860   -2.3190    0.8520 H   0  0  0  0  0  0  0  0  0  0  0  0
    2.3920   -2.7030   -0.8610 H   0  0  0  0  0  0  0  0  0  0  0  0
   -4.1990   -0.6040   -0.5750 C   0  0  0  0  0  0  0  0  0  0  0  0
   -4.7110   -0.9930    0.3100 H   0  0  0  0  0  0  0  0  0  0  0  0
   -4.5230   -1.1910   -1.4420 H   0  0  0  0  0  0  0  0  0  0  0  0
    3.9050   -1.1770   -0.4470 C   0  0  0  0  0  0  0  0  0  0  0  0
    4.3640   -1.5870   -1.3530 H   0  0  0  0  0  0  0  0  0  0  0  0
    4.6140   -1.3620    0.3690 H   0  0  0  0  0  0  0  0  0  0  0  0
   -2.8050   -3.0590   -0.3960 O   0  0  0  0  0  0  0  0  0  0  0  0
   -4.6160    0.8360   -0.7930 C   0  0  0  0  0  0  0  0  0  0  0  0
   -5.6830    1.1170   -1.3370 O   0  0  0  0  0  0  0  0  0  0  0  0
   -3.6560    1.9160   -0.3330 C   0  0  0  0  0  0  0  0  0  0  0  0
   -2.9520    2.1250   -1.1440 H   0  0  0  0  0  0  0  0  0  0  0  0
   -4.2280    2.8290   -0.1330 H   0  0  0  0  0  0  0  0  0  0  0  0
   -2.4360   -0.6600    2.1160 C   0  0  0  0  0  0  0  0  0  0  0  0
   -2.1040   -0.0750    2.9820 H   0  0  0  0  0  0  0  0  0  0  0  0
   -1.9140   -1.6200    2.1600 H   0  0  0  0  0  0  0  0  0  0  0  0
   -3.5030   -0.8670    2.2530 H   0  0  0  0  0  0  0  0  0  0  0  0
    4.6140    1.1110    0.0240 O   0  0  0  0  0  0  0  0  0  0  0  0
    5.4610    0.8620   -0.3840 H   0  0  0  0  0  0  0  0  0  0  0  0
    2.5180    0.5190    1.7040 C   0  0  0  0  0  0  0  0  0  0  0  0
    1.6130    0.4550    2.3110 H   0  0  0  0  0  0  0  0  0  0  0  0
    3.0210    1.4510    1.9880 H   0  0  0  0  0  0  0  0  0  0  0  0
    3.1640   -0.3040    2.0250 H   0  0  0  0  0  0  0  0  0  0  0  0
    3.5770    0.7300   -2.0780 C   0  0  0  0  0  0  0  0  0  0  0  0
    2.7780    0.2460   -2.6450 H   0  0  0  0  0  0  0  0  0  0  0  0
    4.5300    0.4620   -2.5510 H   0  0  0  0  0  0  0  0  0  0  0  0
    3.4910    1.8150   -2.2020 H   0  0  0  0  0  0  0  0  0  0  0  0
   -2.2750   -0.2070   -1.3580 H   0  0  0  0  0  0  0  0  0  0  0  0
    0.3210   -1.5040    1.3830 H   0  0  0  0  0  0  0  0  0  0  0  0
   -0.2960    0.6740    1.6290 H   0  0  0  0  0  0  0  0  0  0  0  0
    1.3130   -0.6860   -1.3550 H   0  0  0  0  0  0  0  0  0  0  0  0
  1  4  1  0  0  0  0
  1  6  1  0  0  0  0
  1 18  1  0  0  0  0
  1 36  1  0  0  0  0
  2  4  1  0  0  0  0
  2  5  1  0  0  0  0
  2  8  1  0  0  0  0
  2 51  1  0  0  0  0
  3  5  1  0  0  0  0
  3 11  1  0  0  0  0
  3 12  1  0  0  0  0
  3 42  1  0  0  0  0
  4 15  1  0  0  0  0
  4 52  1  0  0  0  0
  5 21  1  0  0  0  0
  5 53  1  0  0  0  0
  6  7  1  0  0  0  0
  6 24  1  0  0  0  0
  6 50  1  0  0  0  0
  7  8  1  0  0  0  0
  7 30  2  0  0  0  0
  8  9  1  0  0  0  0
  8 10  1  0  0  0  0
 11 27  1  0  0  0  0
 11 40  1  0  0  0  0
 11 46  1  0  0  0  0
 12 13  1  0  0  0  0
 12 14  1  0  0  0  0
 12 15  1  0  0  0  0
 15 16  1  0  0  0  0
 15 17  1  0  0  0  0
 18 19  1  0  0  0  0
 18 20  1  0  0  0  0
 18 33  1  0  0  0  0
 21 22  1  0  0  0  0
 21 23  1  0  0  0  0
 21 27  1  0  0  0  0
 24 25  1  0  0  0  0
 24 26  1  0  0  0  0
 24 31  1  0  0  0  0
 27 28  1  0  0  0  0
 27 29  1  0  0  0  0
 31 32  2  0  0  0  0
 31 33  1  0  0  0  0
 33 34  1  0  0  0  0
 33 35  1  0  0  0  0
 36 37  1  0  0  0  0
 36 38  1  0  0  0  0
 36 39  1  0  0  0  0
 40 41  1  0  0  0  0
 42 43  1  0  0  0  0
 42 44  1  0  0  0  0
 42 45  1  0  0  0  0
 46 47  1  0  0  0  0
 46 48  1  0  0  0  0
 46 49  1  0  0  0  0
M  END
>  <IDNUMBER>
AA-504/20956012

>  <NAME>
17-hydroxy-17-methylandrostane-3,6-dione

>  <ADD_INFO>
http://www.specs.net/enter.php?specsid=AA-504/20956012

>  <H_ACCEPTORS>
3

>  <H_DONORS>
1

>  <ROTATABLE_BONDS>
0

>  <LOGP>
2.1700001

>  <LOGS>
-2.8699999

>  <TPSA>
54.369999

>  <PRICE>
N04

$$$$
AA-504/20956013
  MOE2011           3D

 57 60  0  0  1  0  0  0  0  0999 V2000
    1.8710    0.3760   -0.5580 C   0  0  2  0  0  0  0  0  0  0  0  0
   -0.4170   -0.7760    0.0850 C   0  0  3  0  0  0  0  0  0  0  0  0
   -2.6400    0.5550   -0.2490 C   0  0  1  0  0  0  0  0  0  0  0  0
    0.2850    0.4590   -0.5450 C   0  0  3  0  0  0  0  0  0  0  0  0
   -1.8810   -0.8090   -0.4140 C   0  0  3  0  0  0  0  0  0  0  0  0
    2.3500   -0.6540    0.5140 C   0  0  1  0  0  0  0  0  0  0  0  0
    0.3240   -2.0740   -0.2280 C   0  0  0  0  0  0  0  0  0  0  0  0
    0.3130   -2.2630   -1.3090 H   0  0  0  0  0  0  0  0  0  0  0  0
   -0.2010   -2.9310    0.2120 H   0  0  0  0  0  0  0  0  0  0  0  0
    1.7570   -2.0690    0.3120 C   0  0  1  0  0  0  0  0  0  0  0  0
   -3.9950    0.1710    0.4650 C   0  0  2  0  0  0  0  0  0  0  0  0
   -1.7910    1.5740    0.5430 C   0  0  0  0  0  0  0  0  0  0  0  0
   -2.2820    2.5550    0.5600 H   0  0  0  0  0  0  0  0  0  0  0  0
   -1.7220    1.2630    1.5910 H   0  0  0  0  0  0  0  0  0  0  0  0
   -0.3400    1.7370    0.0620 C   0  0  0  0  0  0  0  0  0  0  0  0
    0.2210    2.0710    0.9400 H   0  0  0  0  0  0  0  0  0  0  0  0
   -0.2850    2.5470   -0.6760 H   0  0  0  0  0  0  0  0  0  0  0  0
    2.5530    1.7490   -0.2810 C   0  0  0  0  0  0  0  0  0  0  0  0
    2.2900    2.4710   -1.0640 H   0  0  0  0  0  0  0  0  0  0  0  0
    2.1990    2.1670    0.6670 H   0  0  0  0  0  0  0  0  0  0  0  0
   -2.7490   -1.8680    0.2710 C   0  0  0  0  0  0  0  0  0  0  0  0
   -2.6550   -2.8480   -0.2090 H   0  0  0  0  0  0  0  0  0  0  0  0
   -2.4760   -1.9870    1.3250 H   0  0  0  0  0  0  0  0  0  0  0  0
    3.8820   -0.7000    0.6730 C   0  0  0  0  0  0  0  0  0  0  0  0
    4.3630   -1.1420   -0.2080 H   0  0  0  0  0  0  0  0  0  0  0  0
    4.1480   -1.3640    1.5070 H   0  0  0  0  0  0  0  0  0  0  0  0
   -4.1580   -1.3190    0.1380 C   0  0  0  0  0  0  0  0  0  0  0  0
   -4.8630   -1.8280    0.8030 H   0  0  0  0  0  0  0  0  0  0  0  0
   -4.5330   -1.4540   -0.8850 H   0  0  0  0  0  0  0  0  0  0  0  0
    2.3040   -0.0650   -1.9870 C   0  0  0  0  0  0  0  0  0  0  0  0
    2.0800    0.7230   -2.7160 H   0  0  0  0  0  0  0  0  0  0  0  0
    1.7810   -0.9620   -2.3260 H   0  0  0  0  0  0  0  0  0  0  0  0
    3.3750   -0.2740   -2.0580 H   0  0  0  0  0  0  0  0  0  0  0  0
   -5.0970    0.8970   -0.0760 O   0  0  0  0  0  0  0  0  0  0  0  0
   -5.9150    0.5150    0.2860 H   0  0  0  0  0  0  0  0  0  0  0  0
    2.5700   -2.8550   -0.5570 O   0  0  0  0  0  0  0  0  0  0  0  0
    2.1650   -3.7360   -0.6210 H   0  0  0  0  0  0  0  0  0  0  0  0
    4.0740    1.6720   -0.1560 C   0  0  0  0  0  0  0  0  0  0  0  0
    4.4730    2.6640    0.0900 H   0  0  0  0  0  0  0  0  0  0  0  0
    4.5380    1.4070   -1.1130 H   0  0  0  0  0  0  0  0  0  0  0  0
    4.4810    0.6800    0.9280 C   0  0  2  0  0  0  0  0  0  0  0  0
   -2.9200    1.1470   -1.6540 C   0  0  0  0  0  0  0  0  0  0  0  0
   -2.0000    1.3140   -2.2220 H   0  0  0  0  0  0  0  0  0  0  0  0
   -3.4320    2.1130   -1.5820 H   0  0  0  0  0  0  0  0  0  0  0  0
   -3.5500    0.4770   -2.2510 H   0  0  0  0  0  0  0  0  0  0  0  0
    5.9000    0.5650    0.9640 O   0  0  0  0  0  0  0  0  0  0  0  0
    6.2620    1.4530    1.1240 H   0  0  0  0  0  0  0  0  0  0  0  0
   -4.0360    0.3850    1.9850 C   0  0  0  0  0  0  0  0  0  0  0  0
   -3.2270   -0.1320    2.5090 H   0  0  0  0  0  0  0  0  0  0  0  0
   -4.9850    0.0240    2.3990 H   0  0  0  0  0  0  0  0  0  0  0  0
   -3.9940    1.4520    2.2300 H   0  0  0  0  0  0  0  0  0  0  0  0
    1.9540   -0.2900    1.4750 H   0  0  0  0  0  0  0  0  0  0  0  0
   -0.4230   -0.6650    1.1790 H   0  0  0  0  0  0  0  0  0  0  0  0
   -0.0130    0.4780   -1.6030 H   0  0  0  0  0  0  0  0  0  0  0  0
   -1.8600   -1.0680   -1.4840 H   0  0  0  0  0  0  0  0  0  0  0  0
    1.7720   -2.5740    1.2870 H   0  0  0  0  0  0  0  0  0  0  0  0
    4.1530    1.0430    1.9090 H   0  0  0  0  0  0  0  0  0  0  0  0
  1  4  1  0  0  0  0
  1  6  1  0  0  0  0
  1 18  1  0  0  0  0
  1 30  1  0  0  0  0
  2  4  1  0  0  0  0
  2  5  1  0  0  0  0
  2  7  1  0  0  0  0
  2 53  1  0  0  0  0
  3  5  1  0  0  0  0
  3 11  1  0  0  0  0
  3 12  1  0  0  0  0
  3 42  1  0  0  0  0
  4 15  1  0  0  0  0
  4 54  1  0  0  0  0
  5 21  1  0  0  0  0
  5 55  1  0  0  0  0
  6 10  1  0  0  0  0
  6 24  1  0  0  0  0
  6 52  1  0  0  0  0
  7  8  1  0  0  0  0
  7  9  1  0  0  0  0
  7 10  1  0  0  0  0
 10 36  1  0  0  0  0
 10 56  1  0  0  0  0
 11 27  1  0  0  0  0
 11 34  1  0  0  0  0
 11 48  1  0  0  0  0
 12 13  1  0  0  0  0
 12 14  1  0  0  0  0
 12 15  1  0  0  0  0
 15 16  1  0  0  0  0
 15 17  1  0  0  0  0
 18 19  1  0  0  0  0
 18 20  1  0  0  0  0
 18 38  1  0  0  0  0
 21 22  1  0  0  0  0
 21 23  1  0  0  0  0
 21 27  1  0  0  0  0
 24 25  1  0  0  0  0
 24 26  1  0  0  0  0
 24 41  1  0  0  0  0
 27 28  1  0  0  0  0
 27 29  1  0  0  0  0
 30 31  1  0  0  0  0
 30 32  1  0  0  0  0
 30 33  1  0  0  0  0
 34 35  1  0  0  0  0
 36 37  1  0  0  0  0
 38 39  1  0  0  0  0
 38 40  1  0  0  0  0
 38 41  1  0  0  0  0
 41 46  1  0  0  0  0
 41 57  1  0  0  0  0
 42 43  1  0  0  0  0
 42 44  1  0  0  0  0
 42 45  1  0  0  0  0
 46 47  1  0  0  0  0
 48 49  1  0  0  0  0
 48 50  1  0  0  0  0
 48 51  1  0  0  0  0
M  END
>  <IDNUMBER>
AA-504/20956013

>  <NAME>
17-methylandrostane-3,6,17-triol

>  <ADD_INFO>
http://www.specs.net/enter.php?specsid=AA-504/20956013

>  <H_ACCEPTORS>
3

>  <H_DONORS>
3

>  <ROTATABLE_BONDS>
0

>  <LOGP>
2.9000001

>  <LOGS>
-4.0300002

>  <TPSA>
60.689999

>  <PRICE>
N04

$$$$
AA-504/20956014
  MOE2011           3D

 57 60  0  0  1  0  0  0  0  0999 V2000
    2.0990    0.8580    0.2650 C   0  0  1  0  0  0  0  0  0  0  0  0
   -2.3890    0.6740    0.1810 C   0  0  1  0  0  0  0  0  0  0  0  0
    2.7980    0.3460   -0.9950 C   0  0  0  0  0  0  0  0  0  0  0  0
    0.5830    1.2080   -0.0070 C   0  0  3  0  0  0  0  0  0  0  0  0
   -1.5840    0.4420   -1.1350 C   0  0  3  0  0  0  0  0  0  0  0  0
   -0.0820    0.1560   -0.9270 C   0  0  3  0  0  0  0  0  0  0  0  0
   -3.5280   -0.4150    0.1780 C   0  0  2  0  0  0  0  0  0  0  0  0
    2.1410    0.0400   -2.1270 C   0  0  0  0  0  0  0  0  0  0  0  0
    2.6910   -0.3310   -2.9900 H   0  0  0  0  0  0  0  0  0  0  0  0
   -1.4810    0.6370    1.4260 C   0  0  0  0  0  0  0  0  0  0  0  0
   -2.0420    0.9590    2.3120 H   0  0  0  0  0  0  0  0  0  0  0  0
   -1.1440   -0.3810    1.6400 H   0  0  0  0  0  0  0  0  0  0  0  0
    0.6550    0.1140   -2.2790 C   0  0  0  0  0  0  0  0  0  0  0  0
    0.4120    0.9950   -2.8860 H   0  0  0  0  0  0  0  0  0  0  0  0
    0.3230   -0.7650   -2.8440 H   0  0  0  0  0  0  0  0  0  0  0  0
   -0.2280    1.4980    1.2800 C   0  0  0  0  0  0  0  0  0  0  0  0
    0.3780    1.3720    2.1830 H   0  0  0  0  0  0  0  0  0  0  0  0
   -0.5070    2.5580    1.2850 H   0  0  0  0  0  0  0  0  0  0  0  0
    2.2600   -0.2360    1.3670 C   0  0  0  0  0  0  0  0  0  0  0  0
    2.4180    0.2450    2.3410 H   0  0  0  0  0  0  0  0  0  0  0  0
    1.3390   -0.8220    1.4740 H   0  0  0  0  0  0  0  0  0  0  0  0
   -2.3130   -0.6710   -1.9020 C   0  0  0  0  0  0  0  0  0  0  0  0
   -2.3460   -0.4600   -2.9770 H   0  0  0  0  0  0  0  0  0  0  0  0
   -1.8070   -1.6340   -1.7870 H   0  0  0  0  0  0  0  0  0  0  0  0
    4.2790    0.0630   -0.8690 C   0  0  0  0  0  0  0  0  0  0  0  0
    4.8380    1.0030   -0.9520 H   0  0  0  0  0  0  0  0  0  0  0  0
    4.6260   -0.5610   -1.7030 H   0  0  0  0  0  0  0  0  0  0  0  0
   -3.7130   -0.7190   -1.3150 C   0  0  0  0  0  0  0  0  0  0  0  0
   -4.2020   -1.6810   -1.4960 H   0  0  0  0  0  0  0  0  0  0  0  0
   -4.3440    0.0430   -1.7890 H   0  0  0  0  0  0  0  0  0  0  0  0
   -4.7440    0.1710    0.6700 O   0  0  0  0  0  0  0  0  0  0  0  0
   -5.4770   -0.4320    0.4590 H   0  0  0  0  0  0  0  0  0  0  0  0
    3.4020   -1.2370    1.1380 C   0  0  0  0  0  0  0  0  0  0  0  0
    3.0390   -2.0690    0.5190 H   0  0  0  0  0  0  0  0  0  0  0  0
    3.6860   -1.6990    2.0920 H   0  0  0  0  0  0  0  0  0  0  0  0
    4.6250   -0.6140    0.4680 C   0  0  3  0  0  0  0  0  0  0  0  0
    2.7830    2.1710    0.7320 C   0  0  0  0  0  0  0  0  0  0  0  0
    2.2740    2.6050    1.6000 H   0  0  0  0  0  0  0  0  0  0  0  0
    2.7750    2.9240   -0.0650 H   0  0  0  0  0  0  0  0  0  0  0  0
    3.8260    2.0220    1.0280 H   0  0  0  0  0  0  0  0  0  0  0  0
   -3.0130    2.1000    0.0910 C   0  0  0  0  0  0  0  0  0  0  0  0
   -2.2510    2.8680   -0.0860 H   0  0  0  0  0  0  0  0  0  0  0  0
   -3.5340    2.3670    1.0180 H   0  0  0  0  0  0  0  0  0  0  0  0
   -3.7310    2.1740   -0.7330 H   0  0  0  0  0  0  0  0  0  0  0  0
    5.5990   -1.6310    0.2360 O   0  0  0  0  0  0  0  0  0  0  0  0
    5.8140   -2.0350    1.0940 H   0  0  0  0  0  0  0  0  0  0  0  0
   -3.3410   -1.6880    1.0420 C   0  0  0  0  0  0  0  0  0  0  0  0
   -3.1610   -1.3930    2.0830 H   0  0  0  0  0  0  0  0  0  0  0  0
   -4.3050   -2.2180    1.0860 H   0  0  0  0  0  0  0  0  0  0  0  0
   -2.3020   -2.7150    0.6270 C   0  0  0  0  0  0  0  0  0  0  0  0
   -1.3020   -2.2910    0.5440 H   0  0  0  0  0  0  0  0  0  0  0  0
   -2.5670   -3.1880   -0.3230 H   0  0  0  0  0  0  0  0  0  0  0  0
   -2.2550   -3.5130    1.3760 H   0  0  0  0  0  0  0  0  0  0  0  0
    0.5740    2.1510   -0.5780 H   0  0  0  0  0  0  0  0  0  0  0  0
   -1.6550    1.3470   -1.7560 H   0  0  0  0  0  0  0  0  0  0  0  0
    0.0270   -0.8310   -0.4600 H   0  0  0  0  0  0  0  0  0  0  0  0
    5.0840    0.1180    1.1430 H   0  0  0  0  0  0  0  0  0  0  0  0
  1  3  1  0  0  0  0
  1  4  1  0  0  0  0
  1 19  1  0  0  0  0
  1 37  1  0  0  0  0
  2  5  1  0  0  0  0
  2  7  1  0  0  0  0
  2 10  1  0  0  0  0
  2 41  1  0  0  0  0
  3  8  2  0  0  0  0
  3 25  1  0  0  0  0
  4  6  1  0  0  0  0
  4 16  1  0  0  0  0
  4 54  1  0  0  0  0
  5  6  1  0  0  0  0
  5 22  1  0  0  0  0
  5 55  1  0  0  0  0
  6 13  1  0  0  0  0
  6 56  1  0  0  0  0
  7 28  1  0  0  0  0
  7 31  1  0  0  0  0
  7 47  1  0  0  0  0
  8  9  1  0  0  0  0
  8 13  1  0  0  0  0
 10 11  1  0  0  0  0
 10 12  1  0  0  0  0
 10 16  1  0  0  0  0
 13 14  1  0  0  0  0
 13 15  1  0  0  0  0
 16 17  1  0  0  0  0
 16 18  1  0  0  0  0
 19 20  1  0  0  0  0
 19 21  1  0  0  0  0
 19 33  1  0  0  0  0
 22 23  1  0  0  0  0
 22 24  1  0  0  0  0
 22 28  1  0  0  0  0
 25 26  1  0  0  0  0
 25 27  1  0  0  0  0
 25 36  1  0  0  0  0
 28 29  1  0  0  0  0
 28 30  1  0  0  0  0
 31 32  1  0  0  0  0
 33 34  1  0  0  0  0
 33 35  1  0  0  0  0
 33 36  1  0  0  0  0
 36 45  1  0  0  0  0
 36 57  1  0  0  0  0
 37 38  1  0  0  0  0
 37 39  1  0  0  0  0
 37 40  1  0  0  0  0
 41 42  1  0  0  0  0
 41 43  1  0  0  0  0
 41 44  1  0  0  0  0
 45 46  1  0  0  0  0
 47 48  1  0  0  0  0
 47 49  1  0  0  0  0
 47 50  1  0  0  0  0
 50 51  1  0  0  0  0
 50 52  1  0  0  0  0
 50 53  1  0  0  0  0
M  END
>  <IDNUMBER>
AA-504/20956014

>  <NAME>
pregn-5-ene-3,17-diol

>  <ADD_INFO>
http://www.specs.net/enter.php?specsid=AA-504/20956014

>  <H_ACCEPTORS>
2

>  <H_DONORS>
2

>  <ROTATABLE_BONDS>
1

>  <LOGP>
4.8400002

>  <LOGS>
-5.6599998

>  <TPSA>
40.459999

>  <PRICE>
N04

$$$$
AA-504/20956015
  MOE2011           3D

 54 57  0  0  1  0  0  0  0  0999 V2000
    2.6550   -0.1570    0.8360 C   0  0  1  0  0  0  0  0  0  0  0  0
    3.3330    0.7850   -0.1380 C   0  0  0  0  0  0  0  0  0  0  0  0
    0.4480    1.0440    0.2170 C   0  0  3  0  0  0  0  0  0  0  0  0
   -1.8040   -0.1670    0.4850 C   0  0  1  0  0  0  0  0  0  0  0  0
    1.1960   -0.3350    0.2900 C   0  0  3  0  0  0  0  0  0  0  0  0
   -0.9580    0.8150   -0.3530 C   0  0  3  0  0  0  0  0  0  0  0  0
    2.7020    2.1170   -0.3190 C   0  0  0  0  0  0  0  0  0  0  0  0
    1.2160    2.0930   -0.6090 C   0  0  0  0  0  0  0  0  0  0  0  0
    0.8120    3.0900   -0.3980 H   0  0  0  0  0  0  0  0  0  0  0  0
    1.1000    1.9060   -1.6830 H   0  0  0  0  0  0  0  0  0  0  0  0
    4.3110    0.4820   -1.0020 C   0  0  0  0  0  0  0  0  0  0  0  0
    4.7320    1.1930   -1.7040 H   0  0  0  0  0  0  0  0  0  0  0  0
   -3.1740   -0.0910   -0.2740 C   0  0  2  0  0  0  0  0  0  0  0  0
   -1.0780   -1.5230    0.4950 C   0  0  0  0  0  0  0  0  0  0  0  0
   -1.6370   -2.2550    1.0910 H   0  0  0  0  0  0  0  0  0  0  0  0
   -1.0100   -1.9330   -0.5190 H   0  0  0  0  0  0  0  0  0  0  0  0
    0.3600   -1.4060    1.0330 C   0  0  0  0  0  0  0  0  0  0  0  0
    0.8280   -2.3890    0.9160 H   0  0  0  0  0  0  0  0  0  0  0  0
    0.3390   -1.2020    2.1080 H   0  0  0  0  0  0  0  0  0  0  0  0
    3.4660   -1.4800    0.9170 C   0  0  0  0  0  0  0  0  0  0  0  0
    4.3670   -1.3140    1.5270 H   0  0  0  0  0  0  0  0  0  0  0  0
    2.9080   -2.2630    1.4410 H   0  0  0  0  0  0  0  0  0  0  0  0
   -1.8730    2.0220   -0.5140 C   0  0  0  0  0  0  0  0  0  0  0  0
   -1.8050    2.6980    0.3470 H   0  0  0  0  0  0  0  0  0  0  0  0
   -1.6270    2.6050   -1.4070 H   0  0  0  0  0  0  0  0  0  0  0  0
    4.7440   -0.9270   -1.1390 C   0  0  0  0  0  0  0  0  0  0  0  0
   -3.2890    1.4250   -0.6110 C   0  0  0  0  0  0  0  0  0  0  0  0
   -3.6840    1.5970   -1.6170 H   0  0  0  0  0  0  0  0  0  0  0  0
   -3.9610    1.9440    0.0810 H   0  0  0  0  0  0  0  0  0  0  0  0
    3.3690    3.1460   -0.3360 O   0  0  0  0  0  0  0  0  0  0  0  0
    5.6790   -1.2030   -1.8850 O   0  0  0  0  0  0  0  0  0  0  0  0
    3.9330   -1.9900   -0.4370 C   0  0  0  0  0  0  0  0  0  0  0  0
    3.0910   -2.2750   -1.0760 H   0  0  0  0  0  0  0  0  0  0  0  0
    4.5680   -2.8710   -0.2910 H   0  0  0  0  0  0  0  0  0  0  0  0
    2.6810    0.4490    2.2610 C   0  0  0  0  0  0  0  0  0  0  0  0
    2.2070   -0.2200    2.9860 H   0  0  0  0  0  0  0  0  0  0  0  0
    2.1810    1.4200    2.3270 H   0  0  0  0  0  0  0  0  0  0  0  0
    3.7120    0.6140    2.5980 H   0  0  0  0  0  0  0  0  0  0  0  0
   -4.2300   -0.4820    0.6020 O   0  0  0  0  0  0  0  0  0  0  0  0
   -5.0580   -0.1030    0.2620 H   0  0  0  0  0  0  0  0  0  0  0  0
   -2.0040    0.2930    1.9610 C   0  0  0  0  0  0  0  0  0  0  0  0
   -1.0630    0.4490    2.4930 H   0  0  0  0  0  0  0  0  0  0  0  0
   -2.5620   -0.4620    2.5260 H   0  0  0  0  0  0  0  0  0  0  0  0
   -2.5650    1.2300    2.0350 H   0  0  0  0  0  0  0  0  0  0  0  0
   -3.2680   -0.9810   -1.5390 C   0  0  0  0  0  0  0  0  0  0  0  0
   -2.4880   -0.7170   -2.2610 H   0  0  0  0  0  0  0  0  0  0  0  0
   -3.1080   -2.0270   -1.2530 H   0  0  0  0  0  0  0  0  0  0  0  0
   -4.6180   -0.9450   -2.2540 C   0  0  0  0  0  0  0  0  0  0  0  0
   -4.8750    0.0580   -2.6020 H   0  0  0  0  0  0  0  0  0  0  0  0
   -5.4240   -1.3030   -1.6060 H   0  0  0  0  0  0  0  0  0  0  0  0
   -4.5880   -1.6000   -3.1310 H   0  0  0  0  0  0  0  0  0  0  0  0
    0.3520    1.4510    1.2290 H   0  0  0  0  0  0  0  0  0  0  0  0
    1.2770   -0.6980   -0.7470 H   0  0  0  0  0  0  0  0  0  0  0  0
   -0.8160    0.3940   -1.3600 H   0  0  0  0  0  0  0  0  0  0  0  0
  1  2  1  0  0  0  0
  1  5  1  0  0  0  0
  1 20  1  0  0  0  0
  1 35  1  0  0  0  0
  2  7  1  0  0  0  0
  2 11  2  0  0  0  0
  3  5  1  0  0  0  0
  3  6  1  0  0  0  0
  3  8  1  0  0  0  0
  3 52  1  0  0  0  0
  4  6  1  0  0  0  0
  4 13  1  0  0  0  0
  4 14  1  0  0  0  0
  4 41  1  0  0  0  0
  5 17  1  0  0  0  0
  5 53  1  0  0  0  0
  6 23  1  0  0  0  0
  6 54  1  0  0  0  0
  7  8  1  0  0  0  0
  7 30  2  0  0  0  0
  8  9  1  0  0  0  0
  8 10  1  0  0  0  0
 11 12  1  0  0  0  0
 11 26  1  0  0  0  0
 13 27  1  0  0  0  0
 13 39  1  0  0  0  0
 13 45  1  0  0  0  0
 14 15  1  0  0  0  0
 14 16  1  0  0  0  0
 14 17  1  0  0  0  0
 17 18  1  0  0  0  0
 17 19  1  0  0  0  0
 20 21  1  0  0  0  0
 20 22  1  0  0  0  0
 20 32  1  0  0  0  0
 23 24  1  0  0  0  0
 23 25  1  0  0  0  0
 23 27  1  0  0  0  0
 26 31  2  0  0  0  0
 26 32  1  0  0  0  0
 27 28  1  0  0  0  0
 27 29  1  0  0  0  0
 32 33  1  0  0  0  0
 32 34  1  0  0  0  0
 35 36  1  0  0  0  0
 35 37  1  0  0  0  0
 35 38  1  0  0  0  0
 39 40  1  0  0  0  0
 41 42  1  0  0  0  0
 41 43  1  0  0  0  0
 41 44  1  0  0  0  0
 45 46  1  0  0  0  0
 45 47  1  0  0  0  0
 45 48  1  0  0  0  0
 48 49  1  0  0  0  0
 48 50  1  0  0  0  0
 48 51  1  0  0  0  0
M  END
>  <IDNUMBER>
AA-504/20956015

>  <NAME>
17-hydroxypregn-4-ene-3,6-dione

>  <ADD_INFO>
http://www.specs.net/enter.php?specsid=AA-504/20956015

>  <H_ACCEPTORS>
3

>  <H_DONORS>
1

>  <ROTATABLE_BONDS>
1

>  <LOGP>
4.1799998

>  <LOGS>
-4.6700001

>  <TPSA>
54.369999

>  <PRICE>
N04

$$$$
AA-504/20956021
  MOE2011           3D

 66 69  0  0  1  0  0  0  0  0999 V2000
   -4.1550    0.4360    0.7400 C   0  0  1  0  0  0  0  0  0  0  0  0
    0.1360   -0.8850   -0.1700 C   0  0  1  0  0  0  0  0  0  0  0  0
   -4.9040   -0.7090    0.0620 C   0  0  0  0  0  0  0  0  0  0  0  0
   -2.5960    0.3180    0.4670 C   0  0  3  0  0  0  0  0  0  0  0  0
   -0.8110   -0.3200   -1.2720 C   0  0  3  0  0  0  0  0  0  0  0  0
   -2.3140   -0.3370   -0.9060 C   0  0  3  0  0  0  0  0  0  0  0  0
    1.1860    0.2410    0.0850 C   0  0  1  0  0  0  0  0  0  0  0  0
   -6.1330   -0.5870   -0.4660 C   0  0  0  0  0  0  0  0  0  0  0  0
   -6.6370   -1.4060   -0.9660 H   0  0  0  0  0  0  0  0  0  0  0  0
   -0.6170   -1.2490    1.1310 C   0  0  0  0  0  0  0  0  0  0  0  0
   -1.0650   -2.2450    1.0220 H   0  0  0  0  0  0  0  0  0  0  0  0
    0.1000   -1.3680    1.9550 H   0  0  0  0  0  0  0  0  0  0  0  0
   -1.7330   -0.3090    1.5860 C   0  0  0  0  0  0  0  0  0  0  0  0
   -1.2920    0.5040    2.1760 H   0  0  0  0  0  0  0  0  0  0  0  0
   -2.3360   -0.8820    2.2940 H   0  0  0  0  0  0  0  0  0  0  0  0
   -4.6530    1.7730    0.1110 C   0  0  0  0  0  0  0  0  0  0  0  0
   -4.2110    2.6270    0.6400 H   0  0  0  0  0  0  0  0  0  0  0  0
   -4.3050    1.8450   -0.9290 H   0  0  0  0  0  0  0  0  0  0  0  0
   -2.9330   -1.7510   -1.0270 C   0  0  0  0  0  0  0  0  0  0  0  0
   -3.2620   -1.8860   -2.0670 H   0  0  0  0  0  0  0  0  0  0  0  0
   -2.1970   -2.5430   -0.8600 H   0  0  0  0  0  0  0  0  0  0  0  0
   -0.3110    1.1140   -1.5500 C   0  0  0  0  0  0  0  0  0  0  0  0
    0.3510    1.0970   -2.4250 H   0  0  0  0  0  0  0  0  0  0  0  0
   -1.1130    1.8250   -1.7730 H   0  0  0  0  0  0  0  0  0  0  0  0
    2.3260    0.0600   -0.7820 O   0  0  0  0  0  0  0  0  0  0  0  0
    3.4840    0.6790   -0.4130 C   0  0  0  0  0  0  0  0  0  0  0  0
   -4.1250   -1.9850   -0.0950 C   0  0  0  0  0  0  0  0  0  0  0  0
   -3.7800   -2.3240    0.8890 H   0  0  0  0  0  0  0  0  0  0  0  0
   -4.7430   -2.7980   -0.4940 H   0  0  0  0  0  0  0  0  0  0  0  0
   -6.8640    0.7000   -0.4350 C   0  0  0  0  0  0  0  0  0  0  0  0
    0.4890    1.5300   -0.3250 C   0  0  0  0  0  0  0  0  0  0  0  0
   -0.1620    1.8910    0.4740 H   0  0  0  0  0  0  0  0  0  0  0  0
    1.1860    2.3350   -0.5780 H   0  0  0  0  0  0  0  0  0  0  0  0
    3.6330    1.3680    0.5850 O   0  0  0  0  0  0  0  0  0  0  0  0
   -8.0260    0.7390   -0.8340 O   0  0  0  0  0  0  0  0  0  0  0  0
   -6.1710    1.9250    0.1090 C   0  0  0  0  0  0  0  0  0  0  0  0
   -6.4390    2.7790   -0.5230 H   0  0  0  0  0  0  0  0  0  0  0  0
   -6.5540    2.1220    1.1150 H   0  0  0  0  0  0  0  0  0  0  0  0
   -4.4950    0.4470    2.2470 C   0  0  0  0  0  0  0  0  0  0  0  0
   -3.9050    1.2030    2.7770 H   0  0  0  0  0  0  0  0  0  0  0  0
   -4.3180   -0.5250    2.7190 H   0  0  0  0  0  0  0  0  0  0  0  0
   -5.5520    0.6680    2.4330 H   0  0  0  0  0  0  0  0  0  0  0  0
    0.8290   -2.1730   -0.6710 C   0  0  0  0  0  0  0  0  0  0  0  0
    0.1080   -2.9840   -0.8220 H   0  0  0  0  0  0  0  0  0  0  0  0
    1.5750   -2.5220    0.0530 H   0  0  0  0  0  0  0  0  0  0  0  0
    1.3350   -2.0200   -1.6300 H   0  0  0  0  0  0  0  0  0  0  0  0
    4.5410    0.4010   -1.4580 C   0  0  0  0  0  0  0  0  0  0  0  0
    4.5490   -0.6720   -1.6810 H   0  0  0  0  0  0  0  0  0  0  0  0
    4.2480    0.9430   -2.3640 H   0  0  0  0  0  0  0  0  0  0  0  0
    5.9400    0.8550   -1.0400 C   0  0  0  0  0  0  0  0  0  0  0  0
    6.5850    0.8440   -1.9270 H   0  0  0  0  0  0  0  0  0  0  0  0
    5.9120    1.8900   -0.6790 H   0  0  0  0  0  0  0  0  0  0  0  0
    7.9730    0.3940    0.3850 C   0  0  0  0  0  0  0  0  0  0  0  0
    8.6040    0.3780   -0.5110 H   0  0  0  0  0  0  0  0  0  0  0  0
    7.9570    1.4270    0.7520 H   0  0  0  0  0  0  0  0  0  0  0  0
    6.5550   -0.0530    0.0290 C   0  0  0  0  0  0  0  0  0  0  0  0
    5.9340   -0.0460    0.9320 H   0  0  0  0  0  0  0  0  0  0  0  0
    6.5790   -1.0870   -0.3370 H   0  0  0  0  0  0  0  0  0  0  0  0
    8.5910   -0.5030    1.4450 C   0  0  0  0  0  0  0  0  0  0  0  0
    8.6500   -1.5390    1.0970 H   0  0  0  0  0  0  0  0  0  0  0  0
    8.0020   -0.4830    2.3680 H   0  0  0  0  0  0  0  0  0  0  0  0
    9.6050   -0.1670    1.6820 H   0  0  0  0  0  0  0  0  0  0  0  0
   -2.2450    1.3550    0.4000 H   0  0  0  0  0  0  0  0  0  0  0  0
   -0.6980   -0.8850   -2.2080 H   0  0  0  0  0  0  0  0  0  0  0  0
   -2.8230    0.2700   -1.6690 H   0  0  0  0  0  0  0  0  0  0  0  0
    1.5140    0.2610    1.1300 H   0  0  0  0  0  0  0  0  0  0  0  0
  1  3  1  0  0  0  0
  1  4  1  0  0  0  0
  1 16  1  0  0  0  0
  1 39  1  0  0  0  0
  2  5  1  0  0  0  0
  2  7  1  0  0  0  0
  2 10  1  0  0  0  0
  2 43  1  0  0  0  0
  3  8  2  0  0  0  0
  3 27  1  0  0  0  0
  4  6  1  0  0  0  0
  4 13  1  0  0  0  0
  4 63  1  0  0  0  0
  5  6  1  0  0  0  0
  5 22  1  0  0  0  0
  5 64  1  0  0  0  0
  6 19  1  0  0  0  0
  6 65  1  0  0  0  0
  7 25  1  0  0  0  0
  7 31  1  0  0  0  0
  7 66  1  0  0  0  0
  8  9  1  0  0  0  0
  8 30  1  0  0  0  0
 10 11  1  0  0  0  0
 10 12  1  0  0  0  0
 10 13  1  0  0  0  0
 13 14  1  0  0  0  0
 13 15  1  0  0  0  0
 16 17  1  0  0  0  0
 16 18  1  0  0  0  0
 16 36  1  0  0  0  0
 19 20  1  0  0  0  0
 19 21  1  0  0  0  0
 19 27  1  0  0  0  0
 22 23  1  0  0  0  0
 22 24  1  0  0  0  0
 22 31  1  0  0  0  0
 25 26  1  0  0  0  0
 26 34  2  0  0  0  0
 26 47  1  0  0  0  0
 27 28  1  0  0  0  0
 27 29  1  0  0  0  0
 30 35  2  0  0  0  0
 30 36  1  0  0  0  0
 31 32  1  0  0  0  0
 31 33  1  0  0  0  0
 36 37  1  0  0  0  0
 36 38  1  0  0  0  0
 39 40  1  0  0  0  0
 39 41  1  0  0  0  0
 39 42  1  0  0  0  0
 43 44  1  0  0  0  0
 43 45  1  0  0  0  0
 43 46  1  0  0  0  0
 47 48  1  0  0  0  0
 47 49  1  0  0  0  0
 47 50  1  0  0  0  0
 50 51  1  0  0  0  0
 50 52  1  0  0  0  0
 50 56  1  0  0  0  0
 53 54  1  0  0  0  0
 53 55  1  0  0  0  0
 53 56  1  0  0  0  0
 53 59  1  0  0  0  0
 56 57  1  0  0  0  0
 56 58  1  0  0  0  0
 59 60  1  0  0  0  0
 59 61  1  0  0  0  0
 59 62  1  0  0  0  0
M  END
>  <IDNUMBER>
AA-504/20956021

>  <NAME>
3-oxoandrost-4-en-17-yl hexanoate

>  <ADD_INFO>
http://www.specs.net/enter.php?specsid=AA-504/20956021

>  <H_ACCEPTORS>
3

>  <H_DONORS>
0

>  <ROTATABLE_BONDS>
6

>  <LOGP>
6.2399998

>  <LOGS>
-7.3499999

>  <TPSA>
43.369999

>  <PRICE>
N04

$$$$
AA-504/20956035
  MOE2011           3D

 72 77  0  0  1  0  0  0  0  0999 V2000
    0.4220    1.1280    0.2530 C   0  0  1  0  0  0  0  0  0  0  0  0
   -2.4640    0.5200   -0.0210 C   0  0  0  0  0  0  0  0  0  0  0  0
    3.9510   -0.2740   -0.2880 C   0  0  3  0  0  0  0  0  0  0  0  0
   -0.0640   -0.3040    0.5570 C   0  0  3  0  0  0  0  0  0  0  0  0
   -3.9950    0.3610    0.1680 C   0  0  2  0  0  0  0  0  0  0  0  0
    1.8660    0.9020   -0.2590 C   0  0  3  0  0  0  0  0  0  0  0  0
   -1.5880   -0.4120    0.8180 C   0  0  3  0  0  0  0  0  0  0  0  0
    2.9630   -1.1490   -0.8650 O   0  0  0  0  0  0  0  0  0  0  0  0
    1.7700   -0.3930   -1.0770 C   0  0  3  0  0  0  0  0  0  0  0  0
   -1.9030    1.4570   -0.8100 C   0  0  0  0  0  0  0  0  0  0  0  0
   -2.5180    2.1220   -1.4080 H   0  0  0  0  0  0  0  0  0  0  0  0
    0.5130   -1.1370   -0.6080 C   0  0  0  0  0  0  0  0  0  0  0  0
   -0.2020   -1.1830   -1.4370 H   0  0  0  0  0  0  0  0  0  0  0  0
    0.7310   -2.1630   -0.2940 H   0  0  0  0  0  0  0  0  0  0  0  0
    3.1080    0.6610    0.6220 C   0  0  3  0  0  0  0  0  0  0  0  0
   -0.4310    1.7190   -0.9170 C   0  0  0  0  0  0  0  0  0  0  0  0
   -0.2700    2.8040   -0.9600 H   0  0  0  0  0  0  0  0  0  0  0  0
   -0.1080    1.3370   -1.8930 H   0  0  0  0  0  0  0  0  0  0  0  0
    4.8800   -1.0240    0.5030 O   0  0  0  0  0  0  0  0  0  0  0  0
   -4.3620   -1.1510    0.0470 C   0  0  1  0  0  0  0  0  0  0  0  0
   -4.8460    1.1260   -0.8920 C   0  0  0  0  0  0  0  0  0  0  0  0
   -4.6830    2.2080   -0.8070 H   0  0  0  0  0  0  0  0  0  0  0  0
   -4.5210    0.8370   -1.9010 H   0  0  0  0  0  0  0  0  0  0  0  0
   -2.0590   -1.8750    0.7420 C   0  0  0  0  0  0  0  0  0  0  0  0
   -1.8480   -2.2960   -0.2480 H   0  0  0  0  0  0  0  0  0  0  0  0
   -1.5010   -2.4810    1.4670 H   0  0  0  0  0  0  0  0  0  0  0  0
    4.6740    0.4860   -1.4310 C   0  0  0  0  0  0  0  0  0  0  0  0
    4.6380   -0.1110   -2.3530 H   0  0  0  0  0  0  0  0  0  0  0  0
    4.1760    1.4290   -1.6760 H   0  0  0  0  0  0  0  0  0  0  0  0
   -3.5530   -2.0310    1.0090 C   0  0  0  0  0  0  0  0  0  0  0  0
   -3.7790   -1.7880    2.0530 H   0  0  0  0  0  0  0  0  0  0  0  0
   -3.8270   -3.0840    0.8690 H   0  0  0  0  0  0  0  0  0  0  0  0
   -5.8710   -1.4140    0.2110 C   0  0  0  0  0  0  0  0  0  0  0  0
   -6.1890   -1.1780    1.2320 H   0  0  0  0  0  0  0  0  0  0  0  0
   -6.0600   -2.4840    0.0580 H   0  0  0  0  0  0  0  0  0  0  0  0
    0.3100    2.0780    1.4520 C   0  0  0  0  0  0  0  0  0  0  0  0
   -0.7100    2.4610    1.5710 H   0  0  0  0  0  0  0  0  0  0  0  0
    0.9700    2.9430    1.3270 H   0  0  0  0  0  0  0  0  0  0  0  0
    0.5500    1.5940    2.3990 H   0  0  0  0  0  0  0  0  0  0  0  0
    5.9010   -1.6400   -0.2730 C   0  0  0  0  0  0  0  0  0  0  0  0
    6.4230   -2.3650    0.3590 H   0  0  0  0  0  0  0  0  0  0  0  0
    5.4470   -2.2050   -1.0960 H   0  0  0  0  0  0  0  0  0  0  0  0
   -6.3560    0.8710   -0.7840 C   0  0  0  0  0  0  0  0  0  0  0  0
   -6.8490    1.3720   -1.6260 H   0  0  0  0  0  0  0  0  0  0  0  0
   -6.7460    1.3360    0.1280 H   0  0  0  0  0  0  0  0  0  0  0  0
   -6.7060   -0.6150   -0.7890 C   0  0  1  0  0  0  0  0  0  0  0  0
   -4.3370    0.9470    1.5650 C   0  0  0  0  0  0  0  0  0  0  0  0
   -5.3990    0.8620    1.8110 H   0  0  0  0  0  0  0  0  0  0  0  0
   -4.0820    2.0130    1.6090 H   0  0  0  0  0  0  0  0  0  0  0  0
   -3.7940    0.4560    2.3770 H   0  0  0  0  0  0  0  0  0  0  0  0
    6.1300    0.7510   -1.0730 C   0  0  0  0  0  0  0  0  0  0  0  0
    6.1660    1.4030   -0.1910 H   0  0  0  0  0  0  0  0  0  0  0  0
    6.6290    1.2940   -1.8850 H   0  0  0  0  0  0  0  0  0  0  0  0
    6.8650   -0.5710   -0.8050 C   0  0  3  0  0  0  0  0  0  0  0  0
   -6.4890   -1.1480   -2.0940 O   0  0  0  0  0  0  0  0  0  0  0  0
   -7.0850   -0.6810   -2.7040 H   0  0  0  0  0  0  0  0  0  0  0  0
    2.9050    0.0250    2.0000 C   0  0  0  0  0  0  0  0  0  0  0  0
    2.2820    0.6340    2.6520 H   0  0  0  0  0  0  0  0  0  0  0  0
    3.8650   -0.0640    2.5210 H   0  0  0  0  0  0  0  0  0  0  0  0
    2.4830   -0.9820    1.9350 H   0  0  0  0  0  0  0  0  0  0  0  0
    8.0260   -0.3360    0.1620 C   0  0  0  0  0  0  0  0  0  0  0  0
    8.7090    0.4260   -0.2290 H   0  0  0  0  0  0  0  0  0  0  0  0
    8.6010   -1.2560    0.3090 H   0  0  0  0  0  0  0  0  0  0  0  0
    7.6680   -0.0020    1.1420 H   0  0  0  0  0  0  0  0  0  0  0  0
   -4.0930   -1.4740   -0.9710 H   0  0  0  0  0  0  0  0  0  0  0  0
    0.4160   -0.6670    1.4730 H   0  0  0  0  0  0  0  0  0  0  0  0
    2.1170    1.7330   -0.9340 H   0  0  0  0  0  0  0  0  0  0  0  0
   -1.7260   -0.0870    1.8590 H   0  0  0  0  0  0  0  0  0  0  0  0
    1.7010   -0.1830   -2.1500 H   0  0  0  0  0  0  0  0  0  0  0  0
    3.6350    1.6080    0.7920 H   0  0  0  0  0  0  0  0  0  0  0  0
   -7.7700   -0.7480   -0.5610 H   0  0  0  0  0  0  0  0  0  0  0  0
    7.2940   -0.9460   -1.7440 H   0  0  0  0  0  0  0  0  0  0  0  0
  1  4  1  0  0  0  0
  1  6  1  0  0  0  0
  1 16  1  0  0  0  0
  1 36  1  0  0  0  0
  2  5  1  0  0  0  0
  2  7  1  0  0  0  0
  2 10  2  0  0  0  0
  3  8  1  0  0  0  0
  3 15  1  0  0  0  0
  3 19  1  0  0  0  0
  3 27  1  0  0  0  0
  4  7  1  0  0  0  0
  4 12  1  0  0  0  0
  4 66  1  0  0  0  0
  5 20  1  0  0  0  0
  5 21  1  0  0  0  0
  5 47  1  0  0  0  0
  6  9  1  0  0  0  0
  6 15  1  0  0  0  0
  6 67  1  0  0  0  0
  7 24  1  0  0  0  0
  7 68  1  0  0  0  0
  8  9  1  0  0  0  0
  9 12  1  0  0  0  0
  9 69  1  0  0  0  0
 10 11  1  0  0  0  0
 10 16  1  0  0  0  0
 12 13  1  0  0  0  0
 12 14  1  0  0  0  0
 15 57  1  0  0  0  0
 15 70  1  0  0  0  0
 16 17  1  0  0  0  0
 16 18  1  0  0  0  0
 19 40  1  0  0  0  0
 20 30  1  0  0  0  0
 20 33  1  0  0  0  0
 20 65  1  0  0  0  0
 21 22  1  0  0  0  0
 21 23  1  0  0  0  0
 21 43  1  0  0  0  0
 24 25  1  0  0  0  0
 24 26  1  0  0  0  0
 24 30  1  0  0  0  0
 27 28  1  0  0  0  0
 27 29  1  0  0  0  0
 27 51  1  0  0  0  0
 30 31  1  0  0  0  0
 30 32  1  0  0  0  0
 33 34  1  0  0  0  0
 33 35  1  0  0  0  0
 33 46  1  0  0  0  0
 36 37  1  0  0  0  0
 36 38  1  0  0  0  0
 36 39  1  0  0  0  0
 40 41  1  0  0  0  0
 40 42  1  0  0  0  0
 40 54  1  0  0  0  0
 43 44  1  0  0  0  0
 43 45  1  0  0  0  0
 43 46  1  0  0  0  0
 46 55  1  0  0  0  0
 46 71  1  0  0  0  0
 47 48  1  0  0  0  0
 47 49  1  0  0  0  0
 47 50  1  0  0  0  0
 51 52  1  0  0  0  0
 51 53  1  0  0  0  0
 51 54  1  0  0  0  0
 54 61  1  0  0  0  0
 54 72  1  0  0  0  0
 55 56  1  0  0  0  0
 57 58  1  0  0  0  0
 57 59  1  0  0  0  0
 57 60  1  0  0  0  0
 61 62  1  0  0  0  0
 61 63  1  0  0  0  0
 61 64  1  0  0  0  0
M  END
>  <IDNUMBER>
AA-504/20956035

>  <NAME>
Derivative of 3-Hydroxyspirost-9(11)-en-12-one

>  <ADD_INFO>
http://www.specs.net/enter.php?specsid=AA-504/20956035

>  <H_ACCEPTORS>
3

>  <H_DONORS>
1

>  <ROTATABLE_BONDS>
0

>  <LOGP>
7.02

>  <LOGS>
-7.71

>  <TPSA>
38.689999

>  <PRICE>
N05

$$$$
AA-504/20972009
  MOE2011           3D

175180  0  0  1  0  0  0  0  0999 V2000
    0.8940    1.3010   -0.2330 C   0  0  1  0  0  0  0  0  0  0  0  0
   -0.4170    1.8340   -0.9870 C   0  0  1  0  0  0  0  0  0  0  0  0
   -9.4970    0.8700   -0.6460 C   0  0  3  0  0  0  0  0  0  0  0  0
  -10.6110    0.1100    0.1060 C   0  0  3  0  0  0  0  0  0  0  0  0
    8.8840    0.8230    2.3330 C   0  0  3  0  0  0  0  0  0  0  0  0
   -2.9000    0.9760   -1.6050 C   0  0  2  0  0  0  0  0  0  0  0  0
   -1.4250    0.6190   -1.1150 C   0  0  3  0  0  0  0  0  0  0  0  0
    7.4110    0.5700    1.9570 C   0  0  3  0  0  0  0  0  0  0  0  0
   -8.1050    0.7800    0.0080 C   0  0  3  0  0  0  0  0  0  0  0  0
    9.9480    0.3990    1.2900 C   0  0  3  0  0  0  0  0  0  0  0  0
  -10.0380   -0.7700    1.2310 C   0  0  3  0  0  0  0  0  0  0  0  0
    1.5200    0.0960   -1.0220 C   0  0  3  0  0  0  0  0  0  0  0  0
   -3.4380    2.1330   -0.6790 C   0  0  3  0  0  0  0  0  0  0  0  0
    7.1470    0.4710    0.4400 C   0  0  3  0  0  0  0  0  0  0  0  0
   -7.7440   -0.5760    0.2720 O   0  0  0  0  0  0  0  0  0  0  0  0
    8.1440   -0.2940   -0.2240 O   0  0  0  0  0  0  0  0  0  0  0  0
   -4.9700    2.4740   -0.8170 C   0  0  0  0  0  0  0  0  0  0  0  0
   -8.7630   -1.4690    0.7400 C   0  0  3  0  0  0  0  0  0  0  0  0
    9.4560    0.2670   -0.1670 C   0  0  3  0  0  0  0  0  0  0  0  0
    0.5360   -1.0800   -1.1550 C   0  0  3  0  0  0  0  0  0  0  0  0
   -0.7620   -0.5870   -1.8360 C   0  0  0  0  0  0  0  0  0  0  0  0
   -0.5290   -0.3350   -2.8760 H   0  0  0  0  0  0  0  0  0  0  0  0
   -1.4710   -1.4140   -1.8740 H   0  0  0  0  0  0  0  0  0  0  0  0
    2.9430   -0.1100   -0.3950 C   0  0  3  0  0  0  0  0  0  0  0  0
   -7.1780    1.3980   -0.9010 O   0  0  0  0  0  0  0  0  0  0  0  0
   -5.7930    1.1600   -0.6110 C   0  0  3  0  0  0  0  0  0  0  0  0
    2.1030    2.2490   -0.2340 C   0  0  0  0  0  0  0  0  0  0  0  0
    2.2680    2.7160   -1.2090 H   0  0  0  0  0  0  0  0  0  0  0  0
    2.0240    3.0590    0.4990 H   0  0  0  0  0  0  0  0  0  0  0  0
   -1.0980    2.9780   -0.1900 C   0  0  0  0  0  0  0  0  0  0  0  0
   -1.2170    2.6970    0.8610 H   0  0  0  0  0  0  0  0  0  0  0  0
   -0.4610    3.8720   -0.1930 H   0  0  0  0  0  0  0  0  0  0  0  0
   -9.9120    2.1730   -1.1470 O   0  0  0  0  0  0  0  0  0  0  0  0
    9.1400    2.1560    2.8730 O   0  0  0  0  0  0  0  0  0  0  0  0
  -11.5940    1.0330    0.6340 O   0  0  0  0  0  0  0  0  0  0  0  0
    6.8530   -0.5700    2.6900 O   0  0  0  0  0  0  0  0  0  0  0  0
   -3.8200   -0.2630   -1.3760 C   0  0  0  0  0  0  0  0  0  0  0  0
   -3.5660   -1.0640   -2.0810 H   0  0  0  0  0  0  0  0  0  0  0  0
   -3.6480   -0.6700   -0.3710 H   0  0  0  0  0  0  0  0  0  0  0  0
   11.1330    1.2170    1.3580 O   0  0  0  0  0  0  0  0  0  0  0  0
   -9.7100    0.0400    2.3830 O   0  0  0  0  0  0  0  0  0  0  0  0
   -2.4950    3.3540   -0.6960 C   0  0  0  0  0  0  0  0  0  0  0  0
   -2.4430    3.8110   -1.6870 H   0  0  0  0  0  0  0  0  0  0  0  0
   -2.8650    4.1370   -0.0270 H   0  0  0  0  0  0  0  0  0  0  0  0
    0.2340   -1.6240    0.1510 O   0  0  0  0  0  0  0  0  0  0  0  0
    3.3110    1.3480    0.0420 C   0  0  0  0  0  0  0  0  0  0  0  0
    3.5540    1.3550    1.1120 H   0  0  0  0  0  0  0  0  0  0  0  0
    4.1620    1.7890   -0.4750 H   0  0  0  0  0  0  0  0  0  0  0  0
    4.0690   -0.8620   -1.2490 C   0  0  1  0  0  0  0  0  0  0  0  0
    5.8500   -0.1010    0.2470 O   0  0  0  0  0  0  0  0  0  0  0  0
    7.3310   -1.8280    2.5130 C   0  0  0  0  0  0  0  0  0  0  0  0
  -10.0490    3.3480   -0.4980 C   0  0  0  0  0  0  0  0  0  0  0  0
    8.7360    3.2800    2.2370 C   0  0  0  0  0  0  0  0  0  0  0  0
  -12.9160    0.7760    0.7730 C   0  0  0  0  0  0  0  0  0  0  0  0
   11.9810    0.9900    2.3980 C   0  0  0  0  0  0  0  0  0  0  0  0
  -10.6230    0.0630    3.3960 C   0  0  0  0  0  0  0  0  0  0  0  0
   -0.2870   -2.8460    0.4090 C   0  0  0  0  0  0  0  0  0  0  0  0
   11.6120    1.2270   -2.2980 C   0  0  0  0  0  0  0  0  0  0  0  0
   -7.5640   -4.3300    0.6920 C   0  0  0  0  0  0  0  0  0  0  0  0
   -5.3120    0.0240   -1.5190 C   0  0  0  0  0  0  0  0  0  0  0  0
   -5.8610   -0.8960   -1.2880 H   0  0  0  0  0  0  0  0  0  0  0  0
   -5.5780    0.2370   -2.5600 H   0  0  0  0  0  0  0  0  0  0  0  0
    9.5910    1.5010   -1.0770 C   0  0  0  0  0  0  0  0  0  0  0  0
    9.0970    2.3700   -0.6460 H   0  0  0  0  0  0  0  0  0  0  0  0
    9.0820    1.3280   -2.0350 H   0  0  0  0  0  0  0  0  0  0  0  0
   -8.1430   -2.3390    1.8460 C   0  0  0  0  0  0  0  0  0  0  0  0
   -8.8980   -2.9370    2.3680 H   0  0  0  0  0  0  0  0  0  0  0  0
   -7.6460   -1.7090    2.5920 H   0  0  0  0  0  0  0  0  0  0  0  0
    5.4800   -0.1930   -1.1260 C   0  0  0  0  0  0  0  0  0  0  0  0
    5.5030    0.7960   -1.5990 H   0  0  0  0  0  0  0  0  0  0  0  0
    6.2210   -0.8020   -1.6610 H   0  0  0  0  0  0  0  0  0  0  0  0
   10.9590    1.8810   -1.3000 O   0  0  0  0  0  0  0  0  0  0  0  0
   -7.1200   -3.2050    1.3150 O   0  0  0  0  0  0  0  0  0  0  0  0
    8.0620    3.3190    1.2200 O   0  0  0  0  0  0  0  0  0  0  0  0
  -10.4550    4.3440   -1.0940 O   0  0  0  0  0  0  0  0  0  0  0  0
   -0.5890   -3.1670    1.5560 O   0  0  0  0  0  0  0  0  0  0  0  0
   11.8310    0.1520    3.2760 O   0  0  0  0  0  0  0  0  0  0  0  0
  -13.6620    1.6020    1.2910 O   0  0  0  0  0  0  0  0  0  0  0  0
    8.3290   -2.1400    1.8830 O   0  0  0  0  0  0  0  0  0  0  0  0
  -11.6690   -0.5690    3.4250 O   0  0  0  0  0  0  0  0  0  0  0  0
   11.1410    0.3490   -3.0070 O   0  0  0  0  0  0  0  0  0  0  0  0
   -8.7360   -4.6440    0.5380 O   0  0  0  0  0  0  0  0  0  0  0  0
    3.7190   -5.7950   -1.0890 C   0  0  0  0  0  0  0  0  0  0  0  0
    3.5860   -4.6820   -0.3420 C   0  0  0  0  0  0  0  0  0  0  0  0
    3.7910   -4.7510    0.7270 H   0  0  0  0  0  0  0  0  0  0  0  0
    0.6080    0.9800    1.2710 C   0  0  0  0  0  0  0  0  0  0  0  0
    1.4040    0.3980    1.7430 H   0  0  0  0  0  0  0  0  0  0  0  0
   -0.3150    0.4230    1.4350 H   0  0  0  0  0  0  0  0  0  0  0  0
    0.5270    1.9020    1.8580 H   0  0  0  0  0  0  0  0  0  0  0  0
   -0.0450    2.4280   -2.3780 C   0  0  0  0  0  0  0  0  0  0  0  0
   -0.9000    2.8400   -2.9080 H   0  0  0  0  0  0  0  0  0  0  0  0
    0.4150    1.7020   -3.0510 H   0  0  0  0  0  0  0  0  0  0  0  0
    0.6400    3.2760   -2.2830 H   0  0  0  0  0  0  0  0  0  0  0  0
   -2.9380    1.3130   -3.1140 C   0  0  0  0  0  0  0  0  0  0  0  0
   -2.1440    0.8120   -3.6730 H   0  0  0  0  0  0  0  0  0  0  0  0
   -2.8560    2.3830   -3.3130 H   0  0  0  0  0  0  0  0  0  0  0  0
   -3.8640    0.9900   -3.5970 H   0  0  0  0  0  0  0  0  0  0  0  0
   -5.3390    3.1770   -2.1390 C   0  0  0  0  0  0  0  0  0  0  0  0
   -4.6850    4.0320   -2.3370 H   0  0  0  0  0  0  0  0  0  0  0  0
   -6.3640    3.5660   -2.1070 H   0  0  0  0  0  0  0  0  0  0  0  0
   -5.2960    2.5110   -3.0010 H   0  0  0  0  0  0  0  0  0  0  0  0
   -5.3880    3.4530    0.3130 C   0  0  0  0  0  0  0  0  0  0  0  0
   -4.9480    4.4470    0.1820 H   0  0  0  0  0  0  0  0  0  0  0  0
   -5.0920    3.0760    1.2980 H   0  0  0  0  0  0  0  0  0  0  0  0
   -6.4710    3.6000    0.3280 H   0  0  0  0  0  0  0  0  0  0  0  0
    3.1610   -3.3100   -0.7920 C   0  0  0  0  0  0  0  0  0  0  0  0
    2.7350   -3.3370   -1.7950 H   0  0  0  0  0  0  0  0  0  0  0  0
    2.3750   -2.9860   -0.1100 H   0  0  0  0  0  0  0  0  0  0  0  0
    4.3160   -2.3230   -0.7190 C   0  0  0  0  0  0  0  0  0  0  0  0
    5.1610   -2.7560   -1.2740 H   0  0  0  0  0  0  0  0  0  0  0  0
    4.6460   -2.2710    0.3280 H   0  0  0  0  0  0  0  0  0  0  0  0
    3.7550   -0.8980   -2.7570 C   0  0  0  0  0  0  0  0  0  0  0  0
    2.8190   -1.4140   -2.9830 H   0  0  0  0  0  0  0  0  0  0  0  0
    4.5440   -1.4200   -3.3110 H   0  0  0  0  0  0  0  0  0  0  0  0
    3.6890    0.1160   -3.1680 H   0  0  0  0  0  0  0  0  0  0  0  0
   -0.5060   -3.7830   -0.7410 C   0  0  0  0  0  0  0  0  0  0  0  0
    0.3770   -3.8660   -1.3730 H   0  0  0  0  0  0  0  0  0  0  0  0
   -1.3810   -3.4860   -1.3210 H   0  0  0  0  0  0  0  0  0  0  0  0
   -0.6960   -4.7850   -0.3410 H   0  0  0  0  0  0  0  0  0  0  0  0
  -13.4290   -0.5300    0.2480 C   0  0  0  0  0  0  0  0  0  0  0  0
  -13.3160   -0.5730   -0.8380 H   0  0  0  0  0  0  0  0  0  0  0  0
  -14.4980   -0.6070    0.4750 H   0  0  0  0  0  0  0  0  0  0  0  0
  -12.9320   -1.3700    0.7350 H   0  0  0  0  0  0  0  0  0  0  0  0
   13.1400    1.9360    2.3190 C   0  0  0  0  0  0  0  0  0  0  0  0
   12.7840    2.9640    2.4220 H   0  0  0  0  0  0  0  0  0  0  0  0
   13.6640    1.8030    1.3690 H   0  0  0  0  0  0  0  0  0  0  0  0
   13.8390    1.7230    3.1330 H   0  0  0  0  0  0  0  0  0  0  0  0
   -9.6490    3.4330    0.9410 C   0  0  0  0  0  0  0  0  0  0  0  0
   -9.9750    2.5730    1.5190 H   0  0  0  0  0  0  0  0  0  0  0  0
  -10.1350    4.3070    1.3870 H   0  0  0  0  0  0  0  0  0  0  0  0
   -8.5710    3.5650    1.0220 H   0  0  0  0  0  0  0  0  0  0  0  0
  -10.1560    0.9820    4.4820 C   0  0  0  0  0  0  0  0  0  0  0  0
  -10.0600    1.9990    4.0910 H   0  0  0  0  0  0  0  0  0  0  0  0
   -9.2010    0.6300    4.8790 H   0  0  0  0  0  0  0  0  0  0  0  0
  -10.8900    0.9880    5.2930 H   0  0  0  0  0  0  0  0  0  0  0  0
    9.2210    4.4880    2.9760 C   0  0  0  0  0  0  0  0  0  0  0  0
    8.7690    4.5200    3.9710 H   0  0  0  0  0  0  0  0  0  0  0  0
    8.9290    5.3890    2.4290 H   0  0  0  0  0  0  0  0  0  0  0  0
   10.3110    4.4660    3.0490 H   0  0  0  0  0  0  0  0  0  0  0  0
    6.4610   -2.8050    3.2440 C   0  0  0  0  0  0  0  0  0  0  0  0
    6.5170   -2.6190    4.3190 H   0  0  0  0  0  0  0  0  0  0  0  0
    6.8100   -3.8220    3.0430 H   0  0  0  0  0  0  0  0  0  0  0  0
    5.4300   -2.7200    2.8910 H   0  0  0  0  0  0  0  0  0  0  0  0
   -6.4000   -5.1390    0.2070 C   0  0  0  0  0  0  0  0  0  0  0  0
   -5.8410   -4.5700   -0.5400 H   0  0  0  0  0  0  0  0  0  0  0  0
   -6.7650   -6.0610   -0.2540 H   0  0  0  0  0  0  0  0  0  0  0  0
   -5.7560   -5.4050    1.0500 H   0  0  0  0  0  0  0  0  0  0  0  0
   13.0180    1.7340   -2.4010 C   0  0  0  0  0  0  0  0  0  0  0  0
   13.5500    1.5400   -1.4660 H   0  0  0  0  0  0  0  0  0  0  0  0
   13.0110    2.8030   -2.6260 H   0  0  0  0  0  0  0  0  0  0  0  0
   13.5340    1.2110   -3.2110 H   0  0  0  0  0  0  0  0  0  0  0  0
    4.1250   -7.0990   -0.4540 C   0  0  0  0  0  0  0  0  0  0  0  0
    5.0660   -7.4550   -0.8860 H   0  0  0  0  0  0  0  0  0  0  0  0
    3.3550   -7.8590   -0.6230 H   0  0  0  0  0  0  0  0  0  0  0  0
    4.2700   -7.0080    0.6280 H   0  0  0  0  0  0  0  0  0  0  0  0
    3.4980   -5.8760   -2.5750 C   0  0  0  0  0  0  0  0  0  0  0  0
    4.3720   -6.3240   -3.0600 H   0  0  0  0  0  0  0  0  0  0  0  0
    3.3410   -4.9040   -3.0460 H   0  0  0  0  0  0  0  0  0  0  0  0
    2.6260   -6.5010   -2.7920 H   0  0  0  0  0  0  0  0  0  0  0  0
   -9.3690    0.3020   -1.5810 H   0  0  0  0  0  0  0  0  0  0  0  0
  -11.0920   -0.5350   -0.6380 H   0  0  0  0  0  0  0  0  0  0  0  0
    9.0860    0.2070    3.2190 H   0  0  0  0  0  0  0  0  0  0  0  0
   -1.5980    0.2640   -0.0930 H   0  0  0  0  0  0  0  0  0  0  0  0
    6.7900    1.3910    2.3350 H   0  0  0  0  0  0  0  0  0  0  0  0
   -8.0520    1.3360    0.9470 H   0  0  0  0  0  0  0  0  0  0  0  0
   10.2420   -0.6250    1.5600 H   0  0  0  0  0  0  0  0  0  0  0  0
  -10.7690   -1.5370    1.5090 H   0  0  0  0  0  0  0  0  0  0  0  0
    1.7050    0.4430   -2.0450 H   0  0  0  0  0  0  0  0  0  0  0  0
   -3.3530    1.7350    0.3470 H   0  0  0  0  0  0  0  0  0  0  0  0
    7.1220    1.4720    0.0010 H   0  0  0  0  0  0  0  0  0  0  0  0
   -9.0190   -2.0990   -0.1200 H   0  0  0  0  0  0  0  0  0  0  0  0
   10.1080   -0.4920   -0.6200 H   0  0  0  0  0  0  0  0  0  0  0  0
    0.9840   -1.8550   -1.7770 H   0  0  0  0  0  0  0  0  0  0  0  0
    2.8250   -0.6860    0.5310 H   0  0  0  0  0  0  0  0  0  0  0  0
   -5.6770    0.8490    0.4370 H   0  0  0  0  0  0  0  0  0  0  0  0
  1  2  1  0  0  0  0
  1 12  1  0  0  0  0
  1 27  1  0  0  0  0
  1 86  1  0  0  0  0
  2  7  1  0  0  0  0
  2 30  1  0  0  0  0
  2 90  1  0  0  0  0
  3  4  1  0  0  0  0
  3  9  1  0  0  0  0
  3 33  1  0  0  0  0
  3160  1  0  0  0  0
  4 11  1  0  0  0  0
  4 35  1  0  0  0  0
  4161  1  0  0  0  0
  5  8  1  0  0  0  0
  5 10  1  0  0  0  0
  5 34  1  0  0  0  0
  5162  1  0  0  0  0
  6  7  1  0  0  0  0
  6 13  1  0  0  0  0
  6 37  1  0  0  0  0
  6 94  1  0  0  0  0
  7 21  1  0  0  0  0
  7163  1  0  0  0  0
  8 14  1  0  0  0  0
  8 36  1  0  0  0  0
  8164  1  0  0  0  0
  9 15  1  0  0  0  0
  9 25  1  0  0  0  0
  9165  1  0  0  0  0
 10 19  1  0  0  0  0
 10 40  1  0  0  0  0
 10166  1  0  0  0  0
 11 18  1  0  0  0  0
 11 41  1  0  0  0  0
 11167  1  0  0  0  0
 12 20  1  0  0  0  0
 12 24  1  0  0  0  0
 12168  1  0  0  0  0
 13 17  1  0  0  0  0
 13 42  1  0  0  0  0
 13169  1  0  0  0  0
 14 16  1  0  0  0  0
 14 50  1  0  0  0  0
 14170  1  0  0  0  0
 15 18  1  0  0  0  0
 16 19  1  0  0  0  0
 17 26  1  0  0  0  0
 17 98  1  0  0  0  0
 17102  1  0  0  0  0
 18 66  1  0  0  0  0
 18171  1  0  0  0  0
 19 63  1  0  0  0  0
 19172  1  0  0  0  0
 20 21  1  0  0  0  0
 20 45  1  0  0  0  0
 20173  1  0  0  0  0
 21 22  1  0  0  0  0
 21 23  1  0  0  0  0
 24 46  1  0  0  0  0
 24 49  1  0  0  0  0
 24174  1  0  0  0  0
 25 26  1  0  0  0  0
 26 60  1  0  0  0  0
 26175  1  0  0  0  0
 27 28  1  0  0  0  0
 27 29  1  0  0  0  0
 27 46  1  0  0  0  0
 30 31  1  0  0  0  0
 30 32  1  0  0  0  0
 30 42  1  0  0  0  0
 33 52  1  0  0  0  0
 34 53  1  0  0  0  0
 35 54  1  0  0  0  0
 36 51  1  0  0  0  0
 37 38  1  0  0  0  0
 37 39  1  0  0  0  0
 37 60  1  0  0  0  0
 40 55  1  0  0  0  0
 41 56  1  0  0  0  0
 42 43  1  0  0  0  0
 42 44  1  0  0  0  0
 45 57  1  0  0  0  0
 46 47  1  0  0  0  0
 46 48  1  0  0  0  0
 49 69  1  0  0  0  0
 49109  1  0  0  0  0
 49112  1  0  0  0  0
 50 69  1  0  0  0  0
 51 79  2  0  0  0  0
 51140  1  0  0  0  0
 52 75  2  0  0  0  0
 52128  1  0  0  0  0
 53 74  2  0  0  0  0
 53136  1  0  0  0  0
 54 78  2  0  0  0  0
 54120  1  0  0  0  0
 55 77  2  0  0  0  0
 55124  1  0  0  0  0
 56 80  2  0  0  0  0
 56132  1  0  0  0  0
 57 76  2  0  0  0  0
 57116  1  0  0  0  0
 58 72  1  0  0  0  0
 58 81  2  0  0  0  0
 58148  1  0  0  0  0
 59 73  1  0  0  0  0
 59 82  2  0  0  0  0
 59144  1  0  0  0  0
 60 61  1  0  0  0  0
 60 62  1  0  0  0  0
 63 64  1  0  0  0  0
 63 65  1  0  0  0  0
 63 72  1  0  0  0  0
 66 67  1  0  0  0  0
 66 68  1  0  0  0  0
 66 73  1  0  0  0  0
 69 70  1  0  0  0  0
 69 71  1  0  0  0  0
 83 84  2  0  0  0  0
 83152  1  0  0  0  0
 83156  1  0  0  0  0
 84 85  1  0  0  0  0
 84106  1  0  0  0  0
 86 87  1  0  0  0  0
 86 88  1  0  0  0  0
 86 89  1  0  0  0  0
 90 91  1  0  0  0  0
 90 92  1  0  0  0  0
 90 93  1  0  0  0  0
 94 95  1  0  0  0  0
 94 96  1  0  0  0  0
 94 97  1  0  0  0  0
 98 99  1  0  0  0  0
 98100  1  0  0  0  0
 98101  1  0  0  0  0
102103  1  0  0  0  0
102104  1  0  0  0  0
102105  1  0  0  0  0
106107  1  0  0  0  0
106108  1  0  0  0  0
106109  1  0  0  0  0
109110  1  0  0  0  0
109111  1  0  0  0  0
112113  1  0  0  0  0
112114  1  0  0  0  0
112115  1  0  0  0  0
116117  1  0  0  0  0
116118  1  0  0  0  0
116119  1  0  0  0  0
120121  1  0  0  0  0
120122  1  0  0  0  0
120123  1  0  0  0  0
124125  1  0  0  0  0
124126  1  0  0  0  0
124127  1  0  0  0  0
128129  1  0  0  0  0
128130  1  0  0  0  0
128131  1  0  0  0  0
132133  1  0  0  0  0
132134  1  0  0  0  0
132135  1  0  0  0  0
136137  1  0  0  0  0
136138  1  0  0  0  0
136139  1  0  0  0  0
140141  1  0  0  0  0
140142  1  0  0  0  0
140143  1  0  0  0  0
144145  1  0  0  0  0
144146  1  0  0  0  0
144147  1  0  0  0  0
148149  1  0  0  0  0
148150  1  0  0  0  0
148151  1  0  0  0  0
152153  1  0  0  0  0
152154  1  0  0  0  0
152155  1  0  0  0  0
156157  1  0  0  0  0
156158  1  0  0  0  0
156159  1  0  0  0  0
M  END
>  <IDNUMBER>
AA-504/20972009

>  <NAME>
Acetyl Ginsenoside Rg1

>  <ADD_INFO>
http://www.specs.net/enter.php?specsid=AA-504/20972009

>  <H_ACCEPTORS>
22

>  <H_DONORS>
0

>  <ROTATABLE_BONDS>
29

>  <LOGP>
8.6899996

>  <LOGS>
-15.19

>  <TPSA>
273.62

>  <PRICE>
N06

$$$$
AA-504/20987039
  MOE2011           3D

 39 42  0  0  1  0  0  0  0  0999 V2000
    1.3310    0.9080   -0.6820 C   0  0  0  0  0  0  0  0  0  0  0  0
    2.1510    0.0140    0.0130 C   0  0  0  0  0  0  0  0  0  0  0  0
   -3.4470    2.2470    0.3890 O   0  0  0  0  0  0  0  0  0  0  0  0
    0.0960    0.5340   -1.2310 C   0  0  0  0  0  0  0  0  0  0  0  0
   -2.9140    0.9710    0.7740 C   0  0  0  0  0  0  0  0  0  0  0  0
    0.5090   -1.7420   -0.3930 C   0  0  0  0  0  0  0  0  0  0  0  0
   -2.6950    1.5500   -0.6180 C   0  0  3  0  0  0  0  0  0  0  0  0
   -0.2630   -0.8050   -1.0700 C   0  0  0  0  0  0  0  0  0  0  0  0
    1.7500   -1.3310    0.1410 C   0  0  0  0  0  0  0  0  0  0  0  0
    1.7330    2.2560   -0.8540 O   0  0  0  0  0  0  0  0  0  0  0  0
    3.4000    0.5170    0.5780 C   0  0  0  0  0  0  0  0  0  0  0  0
    4.0320   -0.1640    1.1390 H   0  0  0  0  0  0  0  0  0  0  0  0
   -0.6810    1.4190   -1.9350 O   0  0  0  0  0  0  0  0  0  0  0  0
    2.9200    2.7470   -0.3330 C   0  0  0  0  0  0  0  0  0  0  0  0
    3.7540    1.7940    0.4130 C   0  0  0  0  0  0  0  0  0  0  0  0
    4.6770    2.1850    0.8260 H   0  0  0  0  0  0  0  0  0  0  0  0
   -1.4130   -1.3820   -1.5250 O   0  0  0  0  0  0  0  0  0  0  0  0
   -1.4550    2.2550   -1.0590 C   0  0  0  0  0  0  0  0  0  0  0  0
   -0.8530    2.6450   -0.2310 H   0  0  0  0  0  0  0  0  0  0  0  0
   -1.7510    3.1270   -1.6540 H   0  0  0  0  0  0  0  0  0  0  0  0
   -0.2390   -2.9520   -0.4280 C   0  0  0  0  0  0  0  0  0  0  0  0
    0.0350   -3.9030    0.0050 H   0  0  0  0  0  0  0  0  0  0  0  0
   -1.3890   -2.6800   -1.1310 C   0  0  0  0  0  0  0  0  0  0  0  0
   -2.2470   -3.2700   -1.4180 H   0  0  0  0  0  0  0  0  0  0  0  0
    3.2670    3.9130   -0.4750 O   0  0  0  0  0  0  0  0  0  0  0  0
    2.5410   -2.2120    0.8500 O   0  0  0  0  0  0  0  0  0  0  0  0
   -3.9550   -0.0930    0.9430 C   0  0  0  0  0  0  0  0  0  0  0  0
   -3.4870   -1.0830    0.9510 H   0  0  0  0  0  0  0  0  0  0  0  0
   -4.6930   -0.0770    0.1330 H   0  0  0  0  0  0  0  0  0  0  0  0
   -4.4920    0.0410    1.8870 H   0  0  0  0  0  0  0  0  0  0  0  0
   -1.8810    1.0580    1.8540 C   0  0  0  0  0  0  0  0  0  0  0  0
   -1.1920    0.2100    1.7910 H   0  0  0  0  0  0  0  0  0  0  0  0
   -2.3580    1.0310    2.8400 H   0  0  0  0  0  0  0  0  0  0  0  0
   -1.2940    1.9800    1.8080 H   0  0  0  0  0  0  0  0  0  0  0  0
    3.2820   -3.0390   -0.0490 C   0  0  0  0  0  0  0  0  0  0  0  0
    4.0010   -3.6140    0.5430 H   0  0  0  0  0  0  0  0  0  0  0  0
    3.8430   -2.4410   -0.7750 H   0  0  0  0  0  0  0  0  0  0  0  0
    2.6260   -3.7490   -0.5650 H   0  0  0  0  0  0  0  0  0  0  0  0
   -3.2490    1.1380   -1.4530 H   0  0  0  0  0  0  0  0  0  0  0  0
  1  2  1  0  0  0  0
  1  4  2  0  0  0  0
  1 10  1  0  0  0  0
  2  9  2  0  0  0  0
  2 11  1  0  0  0  0
  3  5  1  0  0  0  0
  3  7  1  0  0  0  0
  4  8  1  0  0  0  0
  4 13  1  0  0  0  0
  5  7  1  0  0  0  0
  5 27  1  0  0  0  0
  5 31  1  0  0  0  0
  6  8  2  0  0  0  0
  6  9  1  0  0  0  0
  6 21  1  0  0  0  0
  7 18  1  0  0  0  0
  7 39  1  0  0  0  0
  8 17  1  0  0  0  0
  9 26  1  0  0  0  0
 10 14  1  0  0  0  0
 11 12  1  0  0  0  0
 11 15  2  0  0  0  0
 13 18  1  0  0  0  0
 14 15  1  0  0  0  0
 14 25  2  0  0  0  0
 15 16  1  0  0  0  0
 17 23  1  0  0  0  0
 18 19  1  0  0  0  0
 18 20  1  0  0  0  0
 21 22  1  0  0  0  0
 21 23  2  0  0  0  0
 23 24  1  0  0  0  0
 26 35  1  0  0  0  0
 27 28  1  0  0  0  0
 27 29  1  0  0  0  0
 27 30  1  0  0  0  0
 31 32  1  0  0  0  0
 31 33  1  0  0  0  0
 31 34  1  0  0  0  0
 35 36  1  0  0  0  0
 35 37  1  0  0  0  0
 35 38  1  0  0  0  0
M  END
>  <IDNUMBER>
AA-504/20987039

>  <NAME>
Byakangelicol (Biacangelicol)

>  <ADD_INFO>
http://www.specs.net/enter.php?specsid=AA-504/20987039

>  <H_ACCEPTORS>
2

>  <H_DONORS>
0

>  <ROTATABLE_BONDS>
4

>  <LOGP>
2.6300001

>  <LOGS>
-3.75

>  <TPSA>
70.43

>  <PRICE>
N07

$$$$
AA-504/20990001
  MOE2011           3D

 67 72  0  0  1  0  0  0  0  0999 V2000
   -0.2190   -0.2680    1.0330 C   0  0  2  0  0  0  0  0  0  0  0  0
    1.8990   -0.6750   -1.0330 C   0  0  1  0  0  0  0  0  0  0  0  0
    1.9500   -1.5670    0.2350 C   0  0  3  0  0  0  0  0  0  0  0  0
   -0.0500    0.7300   -0.1180 C   0  0  1  0  0  0  0  0  0  0  0  0
    0.4220   -0.1970   -1.2590 C   0  0  2  0  0  0  0  0  0  0  0  0
    1.1890   -0.8880    1.3890 C   0  0  3  0  0  0  0  0  0  0  0  0
   -1.1330   -1.2980    0.2920 C   0  0  3  0  0  0  0  0  0  0  0  0
   -1.3760    1.4310   -0.4230 N   0  3  2  0  0  0  0  0  0  0  0  0
   -1.5440    1.9760    0.4340 H   0  0  0  0  0  0  0  0  0  0  0  0
   -2.5820   -0.7520    0.2100 C   0  0  2  0  0  0  0  0  0  0  0  0
    3.3430   -1.7400    0.8400 C   0  0  2  0  0  0  0  0  0  0  0  0
    3.5950   -0.3120    1.3020 C   0  0  2  0  0  0  0  0  0  0  0  0
    2.8890    0.5290   -1.0390 C   0  0  0  0  0  0  0  0  0  0  0  0
    3.3950    0.5730   -2.0120 H   0  0  0  0  0  0  0  0  0  0  0  0
    2.3360    1.4720   -0.9820 H   0  0  0  0  0  0  0  0  0  0  0  0
   -0.5360   -1.4030   -1.1440 C   0  0  0  0  0  0  0  0  0  0  0  0
   -1.2850   -1.3460   -1.9380 H   0  0  0  0  0  0  0  0  0  0  0  0
   -0.0510   -2.3710   -1.3010 H   0  0  0  0  0  0  0  0  0  0  0  0
    2.2590    0.0850    1.9640 C   0  0  0  0  0  0  0  0  0  0  0  0
    2.3220   -0.0570    3.0490 H   0  0  0  0  0  0  0  0  0  0  0  0
    2.0460    1.1420    1.7900 H   0  0  0  0  0  0  0  0  0  0  0  0
   -2.6100    0.5500   -0.6330 C   0  0  0  0  0  0  0  0  0  0  0  0
   -3.4810    1.1660   -0.3820 H   0  0  0  0  0  0  0  0  0  0  0  0
   -2.6520    0.3320   -1.7060 H   0  0  0  0  0  0  0  0  0  0  0  0
    3.9410    0.5680    0.0880 C   0  0  2  0  0  0  0  0  0  0  0  0
   -0.8220    0.3210    2.3400 C   0  0  2  0  0  0  0  0  0  0  0  0
   -3.1080   -0.5160    1.6450 C   0  0  0  0  0  0  0  0  0  0  0  0
   -4.1630   -0.2140    1.6300 H   0  0  0  0  0  0  0  0  0  0  0  0
   -3.0700   -1.4590    2.2070 H   0  0  0  0  0  0  0  0  0  0  0  0
    2.2330   -1.5190   -2.1450 O   0  0  0  0  0  0  0  0  0  0  0  0
    2.2660   -0.9850   -2.9570 H   0  0  0  0  0  0  0  0  0  0  0  0
   -2.3290    0.5320    2.4030 C   0  0  0  0  0  0  0  0  0  0  0  0
   -2.6440    0.5240    3.4550 H   0  0  0  0  0  0  0  0  0  0  0  0
   -2.6110    1.5330    2.0580 H   0  0  0  0  0  0  0  0  0  0  0  0
    4.3040   -2.2710   -0.0480 O   0  0  0  0  0  0  0  0  0  0  0  0
    4.8600   -1.5260   -0.3700 H   0  0  0  0  0  0  0  0  0  0  0  0
   -1.2240    2.4870   -1.5070 C   0  0  0  0  0  0  0  0  0  0  0  0
   -0.2580    2.9780   -1.3500 H   0  0  0  0  0  0  0  0  0  0  0  0
   -1.2190    1.9810   -2.4770 H   0  0  0  0  0  0  0  0  0  0  0  0
   -3.5360   -1.7890   -0.4460 C   0  0  0  0  0  0  0  0  0  0  0  0
   -3.6230   -2.6800    0.1880 H   0  0  0  0  0  0  0  0  0  0  0  0
   -3.1760   -2.1120   -1.4280 H   0  0  0  0  0  0  0  0  0  0  0  0
    5.1920    0.0730   -0.4280 O   0  0  0  0  0  0  0  0  0  0  0  0
   -0.2310    1.5970    2.5860 O   0  0  0  0  0  0  0  0  0  0  0  0
   -0.4050    1.8260    3.5190 H   0  0  0  0  0  0  0  0  0  0  0  0
   -4.8230   -1.1920   -0.6190 O   0  0  0  0  0  0  0  0  0  0  0  0
    5.9980    1.0950   -1.0090 C   0  0  0  0  0  0  0  0  0  0  0  0
    6.9010    0.6290   -1.4120 H   0  0  0  0  0  0  0  0  0  0  0  0
    6.2920    1.8220   -0.2470 H   0  0  0  0  0  0  0  0  0  0  0  0
    5.4690    1.5970   -1.8250 H   0  0  0  0  0  0  0  0  0  0  0  0
   -5.7690   -2.1170   -1.1420 C   0  0  0  0  0  0  0  0  0  0  0  0
   -6.7260   -1.6020   -1.2580 H   0  0  0  0  0  0  0  0  0  0  0  0
   -5.9050   -2.9560   -0.4530 H   0  0  0  0  0  0  0  0  0  0  0  0
   -5.4460   -2.4810   -2.1220 H   0  0  0  0  0  0  0  0  0  0  0  0
   -2.3350    3.5170   -1.4140 C   0  0  0  0  0  0  0  0  0  0  0  0
   -2.3850    3.9600   -0.4140 H   0  0  0  0  0  0  0  0  0  0  0  0
   -3.3110    3.0820   -1.6490 H   0  0  0  0  0  0  0  0  0  0  0  0
   -2.1550    4.3240   -2.1320 H   0  0  0  0  0  0  0  0  0  0  0  0
    1.5570   -2.5680    0.0240 H   0  0  0  0  0  0  0  0  0  0  0  0
    0.6460    1.5340    0.1260 H   0  0  0  0  0  0  0  0  0  0  0  0
    0.3380    0.2620   -2.2500 H   0  0  0  0  0  0  0  0  0  0  0  0
    1.0120   -1.6620    2.1520 H   0  0  0  0  0  0  0  0  0  0  0  0
   -1.1200   -2.2750    0.7910 H   0  0  0  0  0  0  0  0  0  0  0  0
    3.2980   -2.4150    1.7040 H   0  0  0  0  0  0  0  0  0  0  0  0
    4.4280   -0.2800    2.0140 H   0  0  0  0  0  0  0  0  0  0  0  0
    4.0790    1.6020    0.4310 H   0  0  0  0  0  0  0  0  0  0  0  0
   -0.5510   -0.3380    3.1750 H   0  0  0  0  0  0  0  0  0  0  0  0
  1  4  1  0  0  0  0
  1  6  1  0  0  0  0
  1  7  1  0  0  0  0
  1 26  1  0  0  0  0
  2  3  1  0  0  0  0
  2  5  1  0  0  0  0
  2 13  1  0  0  0  0
  2 30  1  0  0  0  0
  3  6  1  0  0  0  0
  3 11  1  0  0  0  0
  3 59  1  0  0  0  0
  4  5  1  0  0  0  0
  4  8  1  0  0  0  0
  4 60  1  0  0  0  0
  5 16  1  0  0  0  0
  5 61  1  0  0  0  0
  6 19  1  0  0  0  0
  6 62  1  0  0  0  0
  7 10  1  0  0  0  0
  7 16  1  0  0  0  0
  7 63  1  0  0  0  0
  8  9  1  0  0  0  0
  8 22  1  0  0  0  0
  8 37  1  0  0  0  0
 10 22  1  0  0  0  0
 10 27  1  0  0  0  0
 10 40  1  0  0  0  0
 11 12  1  0  0  0  0
 11 35  1  0  0  0  0
 11 64  1  0  0  0  0
 12 19  1  0  0  0  0
 12 25  1  0  0  0  0
 12 65  1  0  0  0  0
 13 14  1  0  0  0  0
 13 15  1  0  0  0  0
 13 25  1  0  0  0  0
 16 17  1  0  0  0  0
 16 18  1  0  0  0  0
 19 20  1  0  0  0  0
 19 21  1  0  0  0  0
 22 23  1  0  0  0  0
 22 24  1  0  0  0  0
 25 43  1  0  0  0  0
 25 66  1  0  0  0  0
 26 32  1  0  0  0  0
 26 44  1  0  0  0  0
 26 67  1  0  0  0  0
 27 28  1  0  0  0  0
 27 29  1  0  0  0  0
 27 32  1  0  0  0  0
 30 31  1  0  0  0  0
 32 33  1  0  0  0  0
 32 34  1  0  0  0  0
 35 36  1  0  0  0  0
 37 38  1  0  0  0  0
 37 39  1  0  0  0  0
 37 55  1  0  0  0  0
 40 41  1  0  0  0  0
 40 42  1  0  0  0  0
 40 46  1  0  0  0  0
 43 47  1  0  0  0  0
 44 45  1  0  0  0  0
 46 51  1  0  0  0  0
 47 48  1  0  0  0  0
 47 49  1  0  0  0  0
 47 50  1  0  0  0  0
 51 52  1  0  0  0  0
 51 53  1  0  0  0  0
 51 54  1  0  0  0  0
 55 56  1  0  0  0  0
 55 57  1  0  0  0  0
 55 58  1  0  0  0  0
M  CHG  1   8   1
M  END
>  <IDNUMBER>
AA-504/20990001

>  <NAME>
Isotalatizidine

>  <ADD_INFO>
http://www.specs.net/enter.php?specsid=AA-504/20990001

>  <H_ACCEPTORS>
6

>  <H_DONORS>
3

>  <ROTATABLE_BONDS>
4

>  <LOGP>
0.31999999

>  <LOGS>
-1.4400001

>  <TPSA>
82.389999

>  <PRICE>
N07

$$$$
AA-504/20999031
  MOE2011           3D

 71 75  0  0  1  0  0  0  0  0999 V2000
   -2.0780    0.0340   -1.0430 C   0  0  0  0  0  0  0  0  0  0  0  0
   -0.9760    1.0270   -1.1380 C   0  0  0  0  0  0  0  0  0  0  0  0
   -1.7620   -1.2390   -0.7300 C   0  0  0  0  0  0  0  0  0  0  0  0
    0.3750    0.5580   -0.8240 C   0  0  0  0  0  0  0  0  0  0  0  0
   -3.9180    1.2440   -0.2720 C   0  0  2  0  0  0  0  0  0  0  0  0
   -0.4750   -1.6740   -0.4370 O   0  0  0  0  0  0  0  0  0  0  0  0
    5.2610   -0.1260    0.3580 C   0  0  1  0  0  0  0  0  0  0  0  0
    0.5550   -0.7740   -0.4860 C   0  0  0  0  0  0  0  0  0  0  0  0
   -4.7440    2.3630   -0.9320 C   0  0  3  0  0  0  0  0  0  0  0  0
    6.3410   -1.0260    1.0010 C   0  0  3  0  0  0  0  0  0  0  0  0
   -3.3610    0.4520   -1.3370 O   0  0  0  0  0  0  0  0  0  0  0  0
   -5.4290    3.2080    0.1460 C   0  0  3  0  0  0  0  0  0  0  0  0
    7.5330   -1.1970    0.0630 C   0  0  3  0  0  0  0  0  0  0  0  0
   -4.7710    0.4170    0.5300 O   0  0  0  0  0  0  0  0  0  0  0  0
    5.7270    0.4620   -0.8640 O   0  0  0  0  0  0  0  0  0  0  0  0
    1.4690    1.4260   -0.8580 C   0  0  0  0  0  0  0  0  0  0  0  0
   -6.2700    2.2960    1.0540 C   0  0  2  0  0  0  0  0  0  0  0  0
    8.1030    0.1720   -0.3190 C   0  0  2  0  0  0  0  0  0  0  0  0
    6.9940    1.1250   -0.7920 C   0  0  3  0  0  0  0  0  0  0  0  0
   -5.4070    1.1360    1.5960 C   0  0  3  0  0  0  0  0  0  0  0  0
    2.9340   -0.3780   -0.2040 C   0  0  0  0  0  0  0  0  0  0  0  0
    1.8320   -1.2430   -0.1810 C   0  0  0  0  0  0  0  0  0  0  0  0
    1.9750   -2.2890    0.0780 H   0  0  0  0  0  0  0  0  0  0  0  0
    4.1270   -0.9730    0.1010 O   0  0  0  0  0  0  0  0  0  0  0  0
    2.7460    0.9630   -0.5460 C   0  0  0  0  0  0  0  0  0  0  0  0
    3.5720    1.6650   -0.5980 H   0  0  0  0  0  0  0  0  0  0  0  0
   -2.7620   -2.3230   -0.6190 C   0  0  0  0  0  0  0  0  0  0  0  0
   -1.1450    2.2030   -1.4520 O   0  0  0  0  0  0  0  0  0  0  0  0
   -5.7690    1.7800   -1.7650 O   0  0  0  0  0  0  0  0  0  0  0  0
   -5.3110    1.1200   -2.3240 H   0  0  0  0  0  0  0  0  0  0  0  0
    6.8140   -0.4320    2.2230 O   0  0  0  0  0  0  0  0  0  0  0  0
    7.6410   -0.9060    2.4480 H   0  0  0  0  0  0  0  0  0  0  0  0
   -3.7030   -2.5730   -1.6300 C   0  0  0  0  0  0  0  0  0  0  0  0
   -3.7350   -1.9530   -2.5230 H   0  0  0  0  0  0  0  0  0  0  0  0
   -2.7470   -3.1650    0.5070 C   0  0  0  0  0  0  0  0  0  0  0  0
   -2.0240   -3.0000    1.3040 H   0  0  0  0  0  0  0  0  0  0  0  0
   -4.4410    3.9010    0.9060 O   0  0  0  0  0  0  0  0  0  0  0  0
   -4.8990    4.5810    1.4320 H   0  0  0  0  0  0  0  0  0  0  0  0
    8.5650   -1.9430    0.7280 O   0  0  0  0  0  0  0  0  0  0  0  0
    8.2630   -2.8700    0.7690 H   0  0  0  0  0  0  0  0  0  0  0  0
    1.3380    2.7460   -1.2010 O   0  0  0  0  0  0  0  0  0  0  0  0
    0.3840    2.9060   -1.4020 H   0  0  0  0  0  0  0  0  0  0  0  0
   -7.3840    1.7890    0.3080 O   0  0  0  0  0  0  0  0  0  0  0  0
   -7.0240    1.5270   -0.5730 H   0  0  0  0  0  0  0  0  0  0  0  0
    9.0550   -0.0230   -1.3730 O   0  0  0  0  0  0  0  0  0  0  0  0
    9.6650   -0.7130   -1.0490 H   0  0  0  0  0  0  0  0  0  0  0  0
   -4.5750   -4.4520   -0.3910 C   0  0  0  0  0  0  0  0  0  0  0  0
   -4.6110   -3.6310   -1.5130 C   0  0  0  0  0  0  0  0  0  0  0  0
   -5.3350   -3.8190   -2.3010 H   0  0  0  0  0  0  0  0  0  0  0  0
   -3.6520   -4.2250    0.6240 C   0  0  0  0  0  0  0  0  0  0  0  0
   -3.6140   -4.8560    1.5070 H   0  0  0  0  0  0  0  0  0  0  0  0
   -5.4650   -5.4870   -0.3290 O   0  0  0  0  0  0  0  0  0  0  0  0
   -5.2950   -5.9990    0.4790 H   0  0  0  0  0  0  0  0  0  0  0  0
    6.9040    2.3900    0.0600 C   0  0  0  0  0  0  0  0  0  0  0  0
    7.8250    2.9760   -0.0170 H   0  0  0  0  0  0  0  0  0  0  0  0
    6.7370    2.1600    1.1160 H   0  0  0  0  0  0  0  0  0  0  0  0
    6.0640    3.0120   -0.2680 H   0  0  0  0  0  0  0  0  0  0  0  0
   -6.2320    0.1260    2.3850 C   0  0  0  0  0  0  0  0  0  0  0  0
   -6.7610    0.6060    3.2150 H   0  0  0  0  0  0  0  0  0  0  0  0
   -5.5830   -0.6560    2.7930 H   0  0  0  0  0  0  0  0  0  0  0  0
   -6.9620   -0.3820    1.7450 H   0  0  0  0  0  0  0  0  0  0  0  0
   -3.1350    1.6750    0.3670 H   0  0  0  0  0  0  0  0  0  0  0  0
    4.9640    0.6600    1.0640 H   0  0  0  0  0  0  0  0  0  0  0  0
   -4.1020    2.9780   -1.5720 H   0  0  0  0  0  0  0  0  0  0  0  0
    5.9360   -2.0020    1.2880 H   0  0  0  0  0  0  0  0  0  0  0  0
   -6.0800    3.9460   -0.3390 H   0  0  0  0  0  0  0  0  0  0  0  0
    7.2540   -1.7590   -0.8360 H   0  0  0  0  0  0  0  0  0  0  0  0
   -6.6710    2.8680    1.8980 H   0  0  0  0  0  0  0  0  0  0  0  0
    8.6740    0.6090    0.5100 H   0  0  0  0  0  0  0  0  0  0  0  0
    7.2110    1.4490   -1.8170 H   0  0  0  0  0  0  0  0  0  0  0  0
   -4.6240    1.5320    2.2550 H   0  0  0  0  0  0  0  0  0  0  0  0
  1  2  1  0  0  0  0
  1  3  2  0  0  0  0
  1 11  1  0  0  0  0
  2  4  1  0  0  0  0
  2 28  2  0  0  0  0
  3  6  1  0  0  0  0
  3 27  1  0  0  0  0
  4  8  2  0  0  0  0
  4 16  1  0  0  0  0
  5  9  1  0  0  0  0
  5 11  1  0  0  0  0
  5 14  1  0  0  0  0
  5 62  1  0  0  0  0
  6  8  1  0  0  0  0
  7 10  1  0  0  0  0
  7 15  1  0  0  0  0
  7 24  1  0  0  0  0
  7 63  1  0  0  0  0
  8 22  1  0  0  0  0
  9 12  1  0  0  0  0
  9 29  1  0  0  0  0
  9 64  1  0  0  0  0
 10 13  1  0  0  0  0
 10 31  1  0  0  0  0
 10 65  1  0  0  0  0
 12 17  1  0  0  0  0
 12 37  1  0  0  0  0
 12 66  1  0  0  0  0
 13 18  1  0  0  0  0
 13 39  1  0  0  0  0
 13 67  1  0  0  0  0
 14 20  1  0  0  0  0
 15 19  1  0  0  0  0
 16 25  2  0  0  0  0
 16 41  1  0  0  0  0
 17 20  1  0  0  0  0
 17 43  1  0  0  0  0
 17 68  1  0  0  0  0
 18 19  1  0  0  0  0
 18 45  1  0  0  0  0
 18 69  1  0  0  0  0
 19 54  1  0  0  0  0
 19 70  1  0  0  0  0
 20 58  1  0  0  0  0
 20 71  1  0  0  0  0
 21 22  2  0  0  0  0
 21 24  1  0  0  0  0
 21 25  1  0  0  0  0
 22 23  1  0  0  0  0
 25 26  1  0  0  0  0
 27 33  2  0  0  0  0
 27 35  1  0  0  0  0
 29 30  1  0  0  0  0
 31 32  1  0  0  0  0
 33 34  1  0  0  0  0
 33 48  1  0  0  0  0
 35 36  1  0  0  0  0
 35 50  2  0  0  0  0
 37 38  1  0  0  0  0
 39 40  1  0  0  0  0
 41 42  1  0  0  0  0
 43 44  1  0  0  0  0
 45 46  1  0  0  0  0
 47 48  2  0  0  0  0
 47 50  1  0  0  0  0
 47 52  1  0  0  0  0
 48 49  1  0  0  0  0
 50 51  1  0  0  0  0
 52 53  1  0  0  0  0
 54 55  1  0  0  0  0
 54 56  1  0  0  0  0
 54 57  1  0  0  0  0
 58 59  1  0  0  0  0
 58 60  1  0  0  0  0
 58 61  1  0  0  0  0
M  END
>  <IDNUMBER>
AA-504/20999031

>  <NAME>
Kaempferitrin (Lespidin; Kaempferol 3,7-dirhamnoside)

>  <ADD_INFO>
http://www.specs.net/enter.php?specsid=AA-504/20999031

>  <H_ACCEPTORS>
10

>  <H_DONORS>
8

>  <ROTATABLE_BONDS>
5

>  <LOGP>
-1.1

>  <LOGS>
-1.89

>  <TPSA>
225.06

>  <PRICE>
N07

$$$$
AA-504/21001062
  MOE2011           3D

 40 42  0  0  1  0  0  0  0  0999 V2000
   -0.7140   -0.6810    1.2400 C   0  0  0  0  0  0  0  0  0  0  0  0
   -0.7900   -1.7000    0.2750 C   0  0  0  0  0  0  0  0  0  0  0  0
    0.3490   -2.2970   -0.5140 C   0  0  3  0  0  0  0  0  0  0  0  0
    2.4760   -1.7020    0.0430 C   0  0  0  0  0  0  0  0  0  0  0  0
    1.4850   -2.6030    0.3050 O   0  0  0  0  0  0  0  0  0  0  0  0
    0.4190   -0.0640    1.8360 C   0  0  0  0  0  0  0  0  0  0  0  0
    0.7460   -0.5510    2.7530 H   0  0  0  0  0  0  0  0  0  0  0  0
    2.0300   -0.8090   -1.0350 C   0  0  0  0  0  0  0  0  0  0  0  0
    0.8640   -1.2880   -1.4640 C   0  0  0  0  0  0  0  0  0  0  0  0
    0.2390   -0.8180   -2.2110 H   0  0  0  0  0  0  0  0  0  0  0  0
   -1.9910   -0.4080    1.6680 O   0  0  0  0  0  0  0  0  0  0  0  0
    1.1180    0.9950    1.3760 C   0  0  0  0  0  0  0  0  0  0  0  0
   -2.1800   -2.0260    0.1230 C   0  0  0  0  0  0  0  0  0  0  0  0
   -2.8500   -1.2070    0.9990 C   0  0  0  0  0  0  0  0  0  0  0  0
   -3.8940   -1.0770    1.2480 H   0  0  0  0  0  0  0  0  0  0  0  0
    0.8670    1.9020    0.1700 C   0  0  2  0  0  0  0  0  0  0  0  0
   -0.5140    2.3520    0.1300 O   0  0  0  0  0  0  0  0  0  0  0  0
   -1.4590    1.8350   -0.6910 C   0  0  0  0  0  0  0  0  0  0  0  0
    3.5430   -1.6340    0.6250 O   0  0  0  0  0  0  0  0  0  0  0  0
    2.6170    0.5260   -1.3050 C   0  0  0  0  0  0  0  0  0  0  0  0
    3.4400    0.7350   -0.6140 H   0  0  0  0  0  0  0  0  0  0  0  0
    3.0570    0.5280   -2.3100 H   0  0  0  0  0  0  0  0  0  0  0  0
    1.5740    1.6600   -1.2030 C   0  0  0  0  0  0  0  0  0  0  0  0
    0.8540    1.5610   -2.0190 H   0  0  0  0  0  0  0  0  0  0  0  0
    2.1030    2.5910   -1.4570 H   0  0  0  0  0  0  0  0  0  0  0  0
   -1.3050    0.9880   -1.5570 O   0  0  0  0  0  0  0  0  0  0  0  0
    2.3220    1.4270    2.1960 C   0  0  0  0  0  0  0  0  0  0  0  0
    3.2180    1.4820    1.5710 H   0  0  0  0  0  0  0  0  0  0  0  0
    2.5450    0.7360    3.0170 H   0  0  0  0  0  0  0  0  0  0  0  0
    2.1450    2.4140    2.6360 H   0  0  0  0  0  0  0  0  0  0  0  0
   -2.7820   -3.0240   -0.7940 C   0  0  0  0  0  0  0  0  0  0  0  0
   -2.5290   -2.7910   -1.8330 H   0  0  0  0  0  0  0  0  0  0  0  0
   -3.8740   -3.0380   -0.7070 H   0  0  0  0  0  0  0  0  0  0  0  0
   -2.4120   -4.0280   -0.5630 H   0  0  0  0  0  0  0  0  0  0  0  0
   -2.7790    2.4820   -0.3950 C   0  0  0  0  0  0  0  0  0  0  0  0
   -3.0300    2.3510    0.6610 H   0  0  0  0  0  0  0  0  0  0  0  0
   -3.5590    2.0050   -0.9950 H   0  0  0  0  0  0  0  0  0  0  0  0
   -2.7370    3.5430   -0.6520 H   0  0  0  0  0  0  0  0  0  0  0  0
    0.0510   -3.2120   -1.0360 H   0  0  0  0  0  0  0  0  0  0  0  0
    1.3370    2.8470    0.4820 H   0  0  0  0  0  0  0  0  0  0  0  0
  1  2  2  0  0  0  0
  1  6  1  0  0  0  0
  1 11  1  0  0  0  0
  2  3  1  0  0  0  0
  2 13  1  0  0  0  0
  3  5  1  0  0  0  0
  3  9  1  0  0  0  0
  3 39  1  0  0  0  0
  4  5  1  0  0  0  0
  4  8  1  0  0  0  0
  4 19  2  0  0  0  0
  6  7  1  0  0  0  0
  6 12  2  0  0  0  0
  8  9  2  0  0  0  0
  8 20  1  0  0  0  0
  9 10  1  0  0  0  0
 11 14  1  0  0  0  0
 12 16  1  0  0  0  0
 12 27  1  0  0  0  0
 13 14  2  0  0  0  0
 13 31  1  0  0  0  0
 14 15  1  0  0  0  0
 16 17  1  0  0  0  0
 16 23  1  0  0  0  0
 16 40  1  0  0  0  0
 17 18  1  0  0  0  0
 18 26  2  0  0  0  0
 18 35  1  0  0  0  0
 20 21  1  0  0  0  0
 20 22  1  0  0  0  0
 20 23  1  0  0  0  0
 23 24  1  0  0  0  0
 23 25  1  0  0  0  0
 27 28  1  0  0  0  0
 27 29  1  0  0  0  0
 27 30  1  0  0  0  0
 31 32  1  0  0  0  0
 31 33  1  0  0  0  0
 31 34  1  0  0  0  0
 35 36  1  0  0  0  0
 35 37  1  0  0  0  0
 35 38  1  0  0  0  0
M  END
>  <IDNUMBER>
AA-504/21001062

>  <NAME>
Zeylanine

>  <ADD_INFO>
http://www.specs.net/enter.php?specsid=AA-504/21001062

>  <H_ACCEPTORS>
4

>  <H_DONORS>
0

>  <ROTATABLE_BONDS>
2

>  <LOGP>
2.9400001

>  <LOGS>
-3.9200001

>  <TPSA>
65.739998

>  <PRICE>
N07

$$$$
AA-504/21003028
  MOE2011           3D

 52 55  0  0  1  0  0  0  0  0999 V2000
   -0.2970   -1.1200   -0.5950 N   0  3  3  0  0  0  0  0  0  0  0  0
   -0.3450   -0.6560   -1.5120 H   0  0  0  0  0  0  0  0  0  0  0  0
   -2.5370   -0.1330    0.0130 C   0  0  0  0  0  0  0  0  0  0  0  0
    0.3410   -0.0980    0.3500 C   0  0  3  0  0  0  0  0  0  0  0  0
    1.8480   -0.0490    0.1790 C   0  0  0  0  0  0  0  0  0  0  0  0
   -1.7330   -1.3870   -0.2010 C   0  0  0  0  0  0  0  0  0  0  0  0
   -2.1570   -1.9780   -1.0200 H   0  0  0  0  0  0  0  0  0  0  0  0
   -1.7080   -1.9820    0.7190 H   0  0  0  0  0  0  0  0  0  0  0  0
   -1.9030    1.1110    0.1970 C   0  0  0  0  0  0  0  0  0  0  0  0
   -0.3980    1.2400    0.1430 C   0  0  0  0  0  0  0  0  0  0  0  0
   -0.0810    1.9470    0.9220 H   0  0  0  0  0  0  0  0  0  0  0  0
   -0.1320    1.6750   -0.8290 H   0  0  0  0  0  0  0  0  0  0  0  0
   -3.9410   -0.2180    0.0860 C   0  0  0  0  0  0  0  0  0  0  0  0
    2.5180   -1.2840    0.0860 C   0  0  0  0  0  0  0  0  0  0  0  0
    2.6040    1.1310    0.1630 C   0  0  0  0  0  0  0  0  0  0  0  0
    2.1360    2.1100    0.2400 H   0  0  0  0  0  0  0  0  0  0  0  0
    3.9970    1.0880    0.0340 C   0  0  0  0  0  0  0  0  0  0  0  0
    3.9130   -1.3320    0.0020 C   0  0  0  0  0  0  0  0  0  0  0  0
    4.4340   -2.2840   -0.0520 H   0  0  0  0  0  0  0  0  0  0  0  0
    4.6510   -0.1470   -0.0010 C   0  0  0  0  0  0  0  0  0  0  0  0
    0.4930   -2.3960   -0.8300 C   0  0  0  0  0  0  0  0  0  0  0  0
   -0.1830   -3.2520   -0.7340 H   0  0  0  0  0  0  0  0  0  0  0  0
    0.8290   -2.3450   -1.8730 H   0  0  0  0  0  0  0  0  0  0  0  0
   -4.6990    0.9490    0.2390 C   0  0  0  0  0  0  0  0  0  0  0  0
    1.6880   -2.5390    0.1090 C   0  0  0  0  0  0  0  0  0  0  0  0
    1.3530   -2.7300    1.1350 H   0  0  0  0  0  0  0  0  0  0  0  0
    2.2840   -3.4040   -0.2040 H   0  0  0  0  0  0  0  0  0  0  0  0
   -2.6790    2.2620    0.3940 C   0  0  0  0  0  0  0  0  0  0  0  0
   -2.2040    3.2320    0.5260 H   0  0  0  0  0  0  0  0  0  0  0  0
   -4.0700    2.1800    0.4180 C   0  0  0  0  0  0  0  0  0  0  0  0
   -4.6630    3.0790    0.5650 H   0  0  0  0  0  0  0  0  0  0  0  0
   -4.4710   -1.4750   -0.0640 O   0  0  0  0  0  0  0  0  0  0  0  0
    4.6180    2.3090    0.0100 O   0  0  0  0  0  0  0  0  0  0  0  0
    6.0140   -0.2550   -0.0720 O   0  0  0  0  0  0  0  0  0  0  0  0
   -6.0690    0.9310    0.2480 O   0  0  0  0  0  0  0  0  0  0  0  0
   -5.5080   -1.7940    0.8630 C   0  0  0  0  0  0  0  0  0  0  0  0
   -5.4880   -2.8770    1.0200 H   0  0  0  0  0  0  0  0  0  0  0  0
   -6.4850   -1.5410    0.4430 H   0  0  0  0  0  0  0  0  0  0  0  0
   -5.3630   -1.3150    1.8390 H   0  0  0  0  0  0  0  0  0  0  0  0
    5.5900    2.4430   -1.0250 C   0  0  0  0  0  0  0  0  0  0  0  0
    5.6370    3.5020   -1.2990 H   0  0  0  0  0  0  0  0  0  0  0  0
    5.3260    1.8790   -1.9270 H   0  0  0  0  0  0  0  0  0  0  0  0
    6.5790    2.1540   -0.6600 H   0  0  0  0  0  0  0  0  0  0  0  0
    6.5830   -0.1600    1.2360 C   0  0  0  0  0  0  0  0  0  0  0  0
    7.6670   -0.2680    1.1370 H   0  0  0  0  0  0  0  0  0  0  0  0
    6.2190   -0.9660    1.8830 H   0  0  0  0  0  0  0  0  0  0  0  0
    6.3800    0.8150    1.6910 H   0  0  0  0  0  0  0  0  0  0  0  0
   -6.5670    1.0750   -1.0830 C   0  0  0  0  0  0  0  0  0  0  0  0
   -7.6600    1.0430   -1.0360 H   0  0  0  0  0  0  0  0  0  0  0  0
   -6.2310    0.2540   -1.7250 H   0  0  0  0  0  0  0  0  0  0  0  0
   -6.2750    2.0390   -1.5130 H   0  0  0  0  0  0  0  0  0  0  0  0
    0.1410   -0.4630    1.3680 H   0  0  0  0  0  0  0  0  0  0  0  0
  1  2  1  0  0  0  0
  1  4  1  0  0  0  0
  1  6  1  0  0  0  0
  1 21  1  0  0  0  0
  3  6  1  0  0  0  0
  3  9  2  0  0  0  0
  3 13  1  0  0  0  0
  4  5  1  0  0  0  0
  4 10  1  0  0  0  0
  4 52  1  0  0  0  0
  5 14  2  0  0  0  0
  5 15  1  0  0  0  0
  6  7  1  0  0  0  0
  6  8  1  0  0  0  0
  9 10  1  0  0  0  0
  9 28  1  0  0  0  0
 10 11  1  0  0  0  0
 10 12  1  0  0  0  0
 13 24  2  0  0  0  0
 13 32  1  0  0  0  0
 14 18  1  0  0  0  0
 14 25  1  0  0  0  0
 15 16  1  0  0  0  0
 15 17  2  0  0  0  0
 17 20  1  0  0  0  0
 17 33  1  0  0  0  0
 18 19  1  0  0  0  0
 18 20  2  0  0  0  0
 20 34  1  0  0  0  0
 21 22  1  0  0  0  0
 21 23  1  0  0  0  0
 21 25  1  0  0  0  0
 24 30  1  0  0  0  0
 24 35  1  0  0  0  0
 25 26  1  0  0  0  0
 25 27  1  0  0  0  0
 28 29  1  0  0  0  0
 28 30  2  0  0  0  0
 30 31  1  0  0  0  0
 32 36  1  0  0  0  0
 33 40  1  0  0  0  0
 34 44  1  0  0  0  0
 35 48  1  0  0  0  0
 36 37  1  0  0  0  0
 36 38  1  0  0  0  0
 36 39  1  0  0  0  0
 40 41  1  0  0  0  0
 40 42  1  0  0  0  0
 40 43  1  0  0  0  0
 44 45  1  0  0  0  0
 44 46  1  0  0  0  0
 44 47  1  0  0  0  0
 48 49  1  0  0  0  0
 48 50  1  0  0  0  0
 48 51  1  0  0  0  0
M  CHG  1   1   1
M  END
>  <IDNUMBER>
AA-504/21003028

>  <NAME>
Palmatine, Tetrahydro derivative of

>  <ADD_INFO>
http://www.specs.net/enter.php?specsid=AA-504/21003028

>  <H_ACCEPTORS>
1

>  <H_DONORS>
0

>  <ROTATABLE_BONDS>
4

>  <LOGP>
3.3199999

>  <LOGS>
-3.6199999

>  <TPSA>
40.16

>  <PRICE>
N07

>  <SALTDATA>
CH3COOH

$$$$
AA-504/21003038
  MOE2011           3D

 34 36  0  0  1  0  0  0  0  0999 V2000
   -1.5590    0.4130   -0.0820 C   0  0  0  0  0  0  0  0  0  0  0  0
   -0.7420    1.6510   -0.2340 C   0  0  0  0  0  0  0  0  0  0  0  0
   -0.8710   -0.8110   -0.0570 C   0  0  0  0  0  0  0  0  0  0  0  0
    0.4930   -0.9290   -0.1200 O   0  0  0  0  0  0  0  0  0  0  0  0
   -2.9660    0.4270   -0.0020 C   0  0  0  0  0  0  0  0  0  0  0  0
    0.7320    1.4540   -0.4680 C   0  0  0  0  0  0  0  0  0  0  0  0
    0.8850    1.3260   -1.5460 H   0  0  0  0  0  0  0  0  0  0  0  0
    1.2670    2.3530   -0.1400 H   0  0  0  0  0  0  0  0  0  0  0  0
    1.1840    0.2430    0.3300 C   0  0  3  0  0  0  0  0  0  0  0  0
   -1.5660   -2.0180    0.0120 C   0  0  0  0  0  0  0  0  0  0  0  0
   -1.0140   -2.9530    0.0150 H   0  0  0  0  0  0  0  0  0  0  0  0
   -3.6510   -0.7930    0.0860 C   0  0  0  0  0  0  0  0  0  0  0  0
   -4.7330   -0.8430    0.1480 H   0  0  0  0  0  0  0  0  0  0  0  0
   -2.9510   -1.9970    0.0880 C   0  0  0  0  0  0  0  0  0  0  0  0
   -1.2200    2.7800   -0.2210 O   0  0  0  0  0  0  0  0  0  0  0  0
    2.6760    0.0200    0.1730 C   0  0  0  0  0  0  0  0  0  0  0  0
   -3.5930    1.6430   -0.0250 O   0  0  0  0  0  0  0  0  0  0  0  0
   -3.6760   -3.1510    0.1680 O   0  0  0  0  0  0  0  0  0  0  0  0
   -3.0650   -3.9070    0.1690 H   0  0  0  0  0  0  0  0  0  0  0  0
    3.2080   -0.5600   -0.9890 C   0  0  0  0  0  0  0  0  0  0  0  0
    2.5500   -0.8790   -1.7950 H   0  0  0  0  0  0  0  0  0  0  0  0
    3.5570    0.4240    1.1890 C   0  0  0  0  0  0  0  0  0  0  0  0
    3.1780    0.8840    2.0990 H   0  0  0  0  0  0  0  0  0  0  0  0
   -5.0100    1.6740    0.0800 C   0  0  0  0  0  0  0  0  0  0  0  0
   -5.3230    2.7220    0.0630 H   0  0  0  0  0  0  0  0  0  0  0  0
   -5.3460    1.2430    1.0300 H   0  0  0  0  0  0  0  0  0  0  0  0
   -5.4790    1.1720   -0.7720 H   0  0  0  0  0  0  0  0  0  0  0  0
    4.5860   -0.7410   -1.1280 C   0  0  0  0  0  0  0  0  0  0  0  0
    4.9840   -1.1930   -2.0320 H   0  0  0  0  0  0  0  0  0  0  0  0
    4.9340    0.2410    1.0480 C   0  0  0  0  0  0  0  0  0  0  0  0
    5.6060    0.5560    1.8420 H   0  0  0  0  0  0  0  0  0  0  0  0
    5.4480   -0.3410   -0.1090 C   0  0  0  0  0  0  0  0  0  0  0  0
    6.5200   -0.4810   -0.2180 H   0  0  0  0  0  0  0  0  0  0  0  0
    0.9580    0.3720    1.3990 H   0  0  0  0  0  0  0  0  0  0  0  0
  1  2  1  0  0  0  0
  1  3  2  0  0  0  0
  1  5  1  0  0  0  0
  2  6  1  0  0  0  0
  2 15  2  0  0  0  0
  3  4  1  0  0  0  0
  3 10  1  0  0  0  0
  4  9  1  0  0  0  0
  5 12  2  0  0  0  0
  5 17  1  0  0  0  0
  6  7  1  0  0  0  0
  6  8  1  0  0  0  0
  6  9  1  0  0  0  0
  9 16  1  0  0  0  0
  9 34  1  0  0  0  0
 10 11  1  0  0  0  0
 10 14  2  0  0  0  0
 12 13  1  0  0  0  0
 12 14  1  0  0  0  0
 14 18  1  0  0  0  0
 16 20  2  0  0  0  0
 16 22  1  0  0  0  0
 17 24  1  0  0  0  0
 18 19  1  0  0  0  0
 20 21  1  0  0  0  0
 20 28  1  0  0  0  0
 22 23  1  0  0  0  0
 22 30  2  0  0  0  0
 24 25  1  0  0  0  0
 24 26  1  0  0  0  0
 24 27  1  0  0  0  0
 28 29  1  0  0  0  0
 28 32  2  0  0  0  0
 30 31  1  0  0  0  0
 30 32  1  0  0  0  0
 32 33  1  0  0  0  0
M  END
>  <IDNUMBER>
AA-504/21003038

>  <NAME>
Alpinetin

>  <ADD_INFO>
http://www.specs.net/enter.php?specsid=AA-504/21003038

>  <H_ACCEPTORS>
1

>  <H_DONORS>
1

>  <ROTATABLE_BONDS>
2

>  <LOGP>
2.8800001

>  <LOGS>
-3.05

>  <TPSA>
55.759998

>  <PRICE>
N06

$$$$
AA-504/21004029
  MOE2011           3D

 77 81  0  0  1  0  0  0  0  0999 V2000
    2.9730   -2.0100   -1.1840 C   0  0  0  0  0  0  0  0  0  0  0  0
   -1.9080   -1.8980   -0.0150 C   0  0  1  0  0  0  0  0  0  0  0  0
   -1.8170   -3.1900    0.8200 C   0  0  3  0  0  0  0  0  0  0  0  0
   -5.1460    2.3480   -1.2750 C   0  0  3  0  0  0  0  0  0  0  0  0
    4.3090   -2.4020   -1.6430 C   0  0  0  0  0  0  0  0  0  0  0  0
    2.7860   -1.6860    0.1520 C   0  0  0  0  0  0  0  0  0  0  0  0
   -3.1220   -3.9720    0.7210 C   0  0  2  0  0  0  0  0  0  0  0  0
   -4.0680    3.4380   -1.2490 C   0  0  3  0  0  0  0  0  0  0  0  0
   -4.7360    1.2300   -0.2920 C   0  0  1  0  0  0  0  0  0  0  0  0
   -3.0830   -1.1630    0.3780 O   0  0  0  0  0  0  0  0  0  0  0  0
    3.7750   -1.6690    1.0910 O   0  0  0  0  0  0  0  0  0  0  0  0
   -4.3370   -3.1130    1.0670 C   0  0  3  0  0  0  0  0  0  0  0  0
   -4.6140    1.7690    1.0290 O   0  0  0  0  0  0  0  0  0  0  0  0
   -4.3270   -1.8490    0.1870 C   0  0  1  0  0  0  0  0  0  0  0  0
    1.8950   -1.9850   -2.0790 C   0  0  0  0  0  0  0  0  0  0  0  0
   -3.8470    3.9390    0.1860 C   0  0  2  0  0  0  0  0  0  0  0  0
    5.1290   -1.7100    0.6170 C   0  0  1  0  0  0  0  0  0  0  0  0
    5.3510   -2.6200   -0.5900 C   0  0  0  0  0  0  0  0  0  0  0  0
    5.2630   -3.6710   -0.2860 H   0  0  0  0  0  0  0  0  0  0  0  0
    6.3460   -2.4690   -1.0210 H   0  0  0  0  0  0  0  0  0  0  0  0
   -3.6150    2.7890    1.1760 C   0  0  3  0  0  0  0  0  0  0  0  0
    0.4150   -1.3860   -0.2820 C   0  0  0  0  0  0  0  0  0  0  0  0
    1.5030   -1.3690    0.5990 C   0  0  0  0  0  0  0  0  0  0  0  0
    1.3400   -1.1140    1.6440 H   0  0  0  0  0  0  0  0  0  0  0  0
   -0.7900   -1.0350    0.2600 O   0  0  0  0  0  0  0  0  0  0  0  0
    0.6120   -1.6700   -1.6330 C   0  0  0  0  0  0  0  0  0  0  0  0
   -0.2040   -1.6390   -2.3460 H   0  0  0  0  0  0  0  0  0  0  0  0
    5.7050   -0.3030    0.5170 C   0  0  0  0  0  0  0  0  0  0  0  0
    6.3730    0.2360    1.6290 C   0  0  0  0  0  0  0  0  0  0  0  0
    6.4780   -0.3330    2.5500 H   0  0  0  0  0  0  0  0  0  0  0  0
    6.9300    1.5110    1.5650 C   0  0  0  0  0  0  0  0  0  0  0  0
   -5.6980    0.1710   -0.3530 O   0  0  0  0  0  0  0  0  0  0  0  0
   -5.4730   -0.8930    0.5800 C   0  0  0  0  0  0  0  0  0  0  0  0
   -5.3180   -0.4840    1.5850 H   0  0  0  0  0  0  0  0  0  0  0  0
   -6.4160   -1.4490    0.6040 H   0  0  0  0  0  0  0  0  0  0  0  0
    4.4960   -2.5920   -2.8430 O   0  0  0  0  0  0  0  0  0  0  0  0
    6.8310    2.2980    0.4160 C   0  0  0  0  0  0  0  0  0  0  0  0
    5.5970    0.4940   -0.6350 C   0  0  0  0  0  0  0  0  0  0  0  0
    5.0810    0.1380   -1.5220 H   0  0  0  0  0  0  0  0  0  0  0  0
    6.1550    1.7810   -0.6860 C   0  0  0  0  0  0  0  0  0  0  0  0
    6.0440    2.3470   -1.6060 H   0  0  0  0  0  0  0  0  0  0  0  0
   -0.7620   -4.0570    0.3800 O   0  0  0  0  0  0  0  0  0  0  0  0
   -0.9010   -4.8960    0.8660 H   0  0  0  0  0  0  0  0  0  0  0  0
   -6.4000    2.9580   -0.8840 O   0  0  0  0  0  0  0  0  0  0  0  0
   -6.6630    3.5140   -1.6430 H   0  0  0  0  0  0  0  0  0  0  0  0
   -3.0430   -5.0890    1.6170 O   0  0  0  0  0  0  0  0  0  0  0  0
   -3.9460   -5.4660    1.6320 H   0  0  0  0  0  0  0  0  0  0  0  0
   -4.4930    4.5360   -2.0670 O   0  0  0  0  0  0  0  0  0  0  0  0
   -4.8920    5.1870   -1.4510 H   0  0  0  0  0  0  0  0  0  0  0  0
   -5.4960   -3.9280    0.8710 O   0  0  0  0  0  0  0  0  0  0  0  0
   -6.2540   -3.4910    1.3000 H   0  0  0  0  0  0  0  0  0  0  0  0
    2.0640   -2.2670   -3.4110 O   0  0  0  0  0  0  0  0  0  0  0  0
    3.0260   -2.4630   -3.5490 H   0  0  0  0  0  0  0  0  0  0  0  0
   -5.0380    4.6580    0.5670 O   0  0  0  0  0  0  0  0  0  0  0  0
   -5.7790    4.0120    0.4720 H   0  0  0  0  0  0  0  0  0  0  0  0
    7.5970    1.9890    2.6620 O   0  0  0  0  0  0  0  0  0  0  0  0
    7.9000    2.8810    2.3990 H   0  0  0  0  0  0  0  0  0  0  0  0
    7.4330    3.5270    0.5040 O   0  0  0  0  0  0  0  0  0  0  0  0
   -2.2070    2.2060    1.0980 C   0  0  0  0  0  0  0  0  0  0  0  0
   -1.4600    2.9580    1.3730 H   0  0  0  0  0  0  0  0  0  0  0  0
   -1.9600    1.8430    0.0960 H   0  0  0  0  0  0  0  0  0  0  0  0
   -2.1090    1.3540    1.7790 H   0  0  0  0  0  0  0  0  0  0  0  0
    7.3450    4.3600   -0.6470 C   0  0  0  0  0  0  0  0  0  0  0  0
    7.8650    5.2960   -0.4230 H   0  0  0  0  0  0  0  0  0  0  0  0
    6.3030    4.6040   -0.8790 H   0  0  0  0  0  0  0  0  0  0  0  0
    7.8440    3.8990   -1.5060 H   0  0  0  0  0  0  0  0  0  0  0  0
    5.6870   -2.1990    1.4280 H   0  0  0  0  0  0  0  0  0  0  0  0
   -1.9800   -2.1090   -1.0880 H   0  0  0  0  0  0  0  0  0  0  0  0
   -1.6020   -2.9440    1.8670 H   0  0  0  0  0  0  0  0  0  0  0  0
   -5.2930    1.9470   -2.2840 H   0  0  0  0  0  0  0  0  0  0  0  0
   -3.2310   -4.4050   -0.2820 H   0  0  0  0  0  0  0  0  0  0  0  0
   -3.1330    3.0500   -1.6670 H   0  0  0  0  0  0  0  0  0  0  0  0
   -3.7770    0.8280   -0.6290 H   0  0  0  0  0  0  0  0  0  0  0  0
   -4.2940   -2.8490    2.1310 H   0  0  0  0  0  0  0  0  0  0  0  0
   -4.4350   -2.1020   -0.8750 H   0  0  0  0  0  0  0  0  0  0  0  0
   -3.0310    4.6680    0.2200 H   0  0  0  0  0  0  0  0  0  0  0  0
   -3.7540    3.1770    2.1930 H   0  0  0  0  0  0  0  0  0  0  0  0
  1  5  1  0  0  0  0
  1  6  2  0  0  0  0
  1 15  1  0  0  0  0
  2  3  1  0  0  0  0
  2 10  1  0  0  0  0
  2 25  1  0  0  0  0
  2 68  1  0  0  0  0
  3  7  1  0  0  0  0
  3 42  1  0  0  0  0
  3 69  1  0  0  0  0
  4  8  1  0  0  0  0
  4  9  1  0  0  0  0
  4 44  1  0  0  0  0
  4 70  1  0  0  0  0
  5 18  1  0  0  0  0
  5 36  2  0  0  0  0
  6 11  1  0  0  0  0
  6 23  1  0  0  0  0
  7 12  1  0  0  0  0
  7 46  1  0  0  0  0
  7 71  1  0  0  0  0
  8 16  1  0  0  0  0
  8 48  1  0  0  0  0
  8 72  1  0  0  0  0
  9 13  1  0  0  0  0
  9 32  1  0  0  0  0
  9 73  1  0  0  0  0
 10 14  1  0  0  0  0
 11 17  1  0  0  0  0
 12 14  1  0  0  0  0
 12 50  1  0  0  0  0
 12 74  1  0  0  0  0
 13 21  1  0  0  0  0
 14 33  1  0  0  0  0
 14 75  1  0  0  0  0
 15 26  2  0  0  0  0
 15 52  1  0  0  0  0
 16 21  1  0  0  0  0
 16 54  1  0  0  0  0
 16 76  1  0  0  0  0
 17 18  1  0  0  0  0
 17 28  1  0  0  0  0
 17 67  1  0  0  0  0
 18 19  1  0  0  0  0
 18 20  1  0  0  0  0
 21 59  1  0  0  0  0
 21 77  1  0  0  0  0
 22 23  2  0  0  0  0
 22 25  1  0  0  0  0
 22 26  1  0  0  0  0
 23 24  1  0  0  0  0
 26 27  1  0  0  0  0
 28 29  2  0  0  0  0
 28 38  1  0  0  0  0
 29 30  1  0  0  0  0
 29 31  1  0  0  0  0
 31 37  2  0  0  0  0
 31 56  1  0  0  0  0
 32 33  1  0  0  0  0
 33 34  1  0  0  0  0
 33 35  1  0  0  0  0
 37 40  1  0  0  0  0
 37 58  1  0  0  0  0
 38 39  1  0  0  0  0
 38 40  2  0  0  0  0
 40 41  1  0  0  0  0
 42 43  1  0  0  0  0
 44 45  1  0  0  0  0
 46 47  1  0  0  0  0
 48 49  1  0  0  0  0
 50 51  1  0  0  0  0
 52 53  1  0  0  0  0
 54 55  1  0  0  0  0
 56 57  1  0  0  0  0
 58 63  1  0  0  0  0
 59 60  1  0  0  0  0
 59 61  1  0  0  0  0
 59 62  1  0  0  0  0
 63 64  1  0  0  0  0
 63 65  1  0  0  0  0
 63 66  1  0  0  0  0
M  END
>  <IDNUMBER>
AA-504/21004029

>  <NAME>
Hesperidin

>  <ADD_INFO>
http://www.specs.net/enter.php?specsid=AA-504/21004029

>  <H_ACCEPTORS>
10

>  <H_DONORS>
8

>  <ROTATABLE_BONDS>
7

>  <LOGP>
-0.72000003

>  <LOGS>
-2.46

>  <TPSA>
234.28999

>  <PRICE>
N06

$$$$
AA-504/21004030
  MOE2011           3D

112116  0  0  1  0  0  0  0  0999 V2000
    0.1830    2.7300    0.8800 C   0  0  3  0  0  0  0  0  0  0  0  0
   -1.0710    3.4730    0.3810 C   0  0  2  0  0  0  0  0  0  0  0  0
   -6.2760   -1.6790    0.8430 C   0  0  3  0  0  0  0  0  0  0  0  0
   -5.3380   -0.9290   -0.1190 C   0  0  3  0  0  0  0  0  0  0  0  0
   -0.1370    1.2530    1.1540 C   0  0  1  0  0  0  0  0  0  0  0  0
    3.6000   -1.5540   -0.9100 C   0  0  0  0  0  0  0  0  0  0  0  0
   -1.8930    2.6970   -0.6640 C   0  0  3  0  0  0  0  0  0  0  0  0
   -5.9400   -3.1620    0.9940 C   0  0  2  0  0  0  0  0  0  0  0  0
    4.4900   -2.3670   -1.7440 C   0  0  0  0  0  0  0  0  0  0  0  0
    3.5050   -1.8420    0.4450 C   0  0  0  0  0  0  0  0  0  0  0  0
   -3.8400   -1.2650    0.1330 C   0  0  1  0  0  0  0  0  0  0  0  0
   -0.8190    0.6420    0.0570 O   0  0  0  0  0  0  0  0  0  0  0  0
   -2.0870    1.2460   -0.2070 C   0  0  2  0  0  0  0  0  0  0  0  0
    4.2430   -2.8060    1.0760 O   0  0  0  0  0  0  0  0  0  0  0  0
   -3.6590   -2.6800    0.2900 O   0  0  0  0  0  0  0  0  0  0  0  0
    2.8280   -0.5360   -1.4710 C   0  0  0  0  0  0  0  0  0  0  0  0
    5.4200   -3.2490    0.3710 C   0  0  1  0  0  0  0  0  0  0  0  0
    5.0930   -3.5740   -1.0890 C   0  0  0  0  0  0  0  0  0  0  0  0
    4.3440   -4.3740   -1.1430 H   0  0  0  0  0  0  0  0  0  0  0  0
    5.9710   -3.8920   -1.6580 H   0  0  0  0  0  0  0  0  0  0  0  0
   -4.4410   -3.2820    1.3170 C   0  0  3  0  0  0  0  0  0  0  0  0
    8.9550   -1.7880    0.1460 C   0  0  0  0  0  0  0  0  0  0  0  0
    1.8260   -0.1040    0.6780 C   0  0  0  0  0  0  0  0  0  0  0  0
    0.5810    3.3520    2.1360 O   0  0  0  0  0  0  0  0  0  0  0  0
   -0.7620    4.8180   -0.0790 O   0  0  0  0  0  0  0  0  0  0  0  0
   -7.7160   -1.4750    0.6680 O   0  0  0  0  0  0  0  0  0  0  0  0
   -5.6600    0.4910   -0.0990 O   0  0  0  0  0  0  0  0  0  0  0  0
    2.6140   -1.1190    1.2350 C   0  0  0  0  0  0  0  0  0  0  0  0
    2.5340   -1.3410    2.2970 H   0  0  0  0  0  0  0  0  0  0  0  0
    1.0370    0.5440    1.5830 O   0  0  0  0  0  0  0  0  0  0  0  0
    1.9410    0.1920   -0.6810 C   0  0  0  0  0  0  0  0  0  0  0  0
    1.3590    0.9740   -1.1550 H   0  0  0  0  0  0  0  0  0  0  0  0
   -3.2070    3.2990   -0.7780 O   0  0  0  0  0  0  0  0  0  0  0  0
   -6.2300   -3.8400   -0.2530 O   0  0  0  0  0  0  0  0  0  0  0  0
    6.6330   -2.3410    0.5840 C   0  0  0  0  0  0  0  0  0  0  0  0
    7.8460   -2.6140   -0.0640 C   0  0  0  0  0  0  0  0  0  0  0  0
    7.9540   -3.4720   -0.7210 H   0  0  0  0  0  0  0  0  0  0  0  0
   10.1580   -2.1490   -0.5010 O   0  0  0  0  0  0  0  0  0  0  0  0
   -3.0190   -0.9280   -0.9890 O   0  0  0  0  0  0  0  0  0  0  0  0
   -8.5330   -1.4840   -0.4030 C   0  0  0  0  0  0  0  0  0  0  0  0
    0.0630    4.9810   -1.1510 C   0  0  0  0  0  0  0  0  0  0  0  0
    1.8600    3.5960    2.5020 C   0  0  0  0  0  0  0  0  0  0  0  0
   -5.4830    1.2040    1.0460 C   0  0  0  0  0  0  0  0  0  0  0  0
   -3.4070    4.1630   -1.8120 C   0  0  0  0  0  0  0  0  0  0  0  0
   -7.1400   -4.8340   -0.4080 C   0  0  0  0  0  0  0  0  0  0  0  0
   10.6590   -1.4340   -1.5850 C   0  0  0  0  0  0  0  0  0  0  0  0
   -2.8130    0.4440   -1.3000 C   0  0  0  0  0  0  0  0  0  0  0  0
   -2.1900    0.4430   -2.2020 H   0  0  0  0  0  0  0  0  0  0  0  0
   -3.7630    0.9020   -1.5850 H   0  0  0  0  0  0  0  0  0  0  0  0
    4.6310   -2.0750   -2.9290 O   0  0  0  0  0  0  0  0  0  0  0  0
    8.9210   -0.7000    1.0230 C   0  0  0  0  0  0  0  0  0  0  0  0
    6.6020   -1.2570    1.4780 C   0  0  0  0  0  0  0  0  0  0  0  0
    5.7010   -1.0310    2.0440 H   0  0  0  0  0  0  0  0  0  0  0  0
   -9.7520   -1.4400   -0.2460 O   0  0  0  0  0  0  0  0  0  0  0  0
   -4.9310    0.7940    2.0560 O   0  0  0  0  0  0  0  0  0  0  0  0
   -7.3740   -5.3080   -1.5160 O   0  0  0  0  0  0  0  0  0  0  0  0
    0.6460    4.0860   -1.7440 O   0  0  0  0  0  0  0  0  0  0  0  0
   -2.5840    4.4550   -2.6650 O   0  0  0  0  0  0  0  0  0  0  0  0
    2.1370    3.8760    3.6650 O   0  0  0  0  0  0  0  0  0  0  0  0
   11.7900   -1.6420   -2.0170 O   0  0  0  0  0  0  0  0  0  0  0  0
    7.7250   -0.4420    1.6890 C   0  0  0  0  0  0  0  0  0  0  0  0
    7.6240    0.3800    2.3910 H   0  0  0  0  0  0  0  0  0  0  0  0
    2.9060   -0.2260   -2.8030 O   0  0  0  0  0  0  0  0  0  0  0  0
    3.5850   -0.8250   -3.2020 H   0  0  0  0  0  0  0  0  0  0  0  0
   10.0780    0.0150    1.1560 O   0  0  0  0  0  0  0  0  0  0  0  0
   -3.9960   -4.7360    1.4300 C   0  0  0  0  0  0  0  0  0  0  0  0
   -4.5670   -5.2680    2.1970 H   0  0  0  0  0  0  0  0  0  0  0  0
   -2.9330   -4.7860    1.6910 H   0  0  0  0  0  0  0  0  0  0  0  0
   -4.1050   -5.2640    0.4770 H   0  0  0  0  0  0  0  0  0  0  0  0
   -6.0860    2.5690    0.9250 C   0  0  0  0  0  0  0  0  0  0  0  0
   -6.4430    2.7470   -0.0930 H   0  0  0  0  0  0  0  0  0  0  0  0
   -5.3310    3.3210    1.1650 H   0  0  0  0  0  0  0  0  0  0  0  0
   -6.9350    2.6480    1.6080 H   0  0  0  0  0  0  0  0  0  0  0  0
   -7.9450   -1.4920   -1.7750 C   0  0  0  0  0  0  0  0  0  0  0  0
   -7.2610   -2.3260   -1.9200 H   0  0  0  0  0  0  0  0  0  0  0  0
   -7.4710   -0.5320   -1.9860 H   0  0  0  0  0  0  0  0  0  0  0  0
   -8.7540   -1.6240   -2.5010 H   0  0  0  0  0  0  0  0  0  0  0  0
    2.9120    3.5570    1.4370 C   0  0  0  0  0  0  0  0  0  0  0  0
    3.0680    2.5390    1.0810 H   0  0  0  0  0  0  0  0  0  0  0  0
    3.8580    3.9100    1.8620 H   0  0  0  0  0  0  0  0  0  0  0  0
    2.6520    4.2350    0.6200 H   0  0  0  0  0  0  0  0  0  0  0  0
   -4.8030    4.7020   -1.7770 C   0  0  0  0  0  0  0  0  0  0  0  0
   -5.0260    5.1000   -0.7840 H   0  0  0  0  0  0  0  0  0  0  0  0
   -5.5090    3.9130   -2.0470 H   0  0  0  0  0  0  0  0  0  0  0  0
   -4.8920    5.5190   -2.4980 H   0  0  0  0  0  0  0  0  0  0  0  0
    0.1740    6.4360   -1.4900 C   0  0  0  0  0  0  0  0  0  0  0  0
    0.6620    6.9700   -0.6710 H   0  0  0  0  0  0  0  0  0  0  0  0
   -0.8190    6.8500   -1.6820 H   0  0  0  0  0  0  0  0  0  0  0  0
    0.7770    6.5510   -2.3950 H   0  0  0  0  0  0  0  0  0  0  0  0
    9.7280   -0.4360   -2.2150 C   0  0  0  0  0  0  0  0  0  0  0  0
    8.7740   -0.9040   -2.4680 H   0  0  0  0  0  0  0  0  0  0  0  0
   10.1740   -0.0850   -3.1520 H   0  0  0  0  0  0  0  0  0  0  0  0
    9.5890    0.4310   -1.5670 H   0  0  0  0  0  0  0  0  0  0  0  0
   -7.8540   -5.3210    0.8160 C   0  0  0  0  0  0  0  0  0  0  0  0
   -8.4700   -4.5250    1.2400 H   0  0  0  0  0  0  0  0  0  0  0  0
   -7.1400   -5.7130    1.5440 H   0  0  0  0  0  0  0  0  0  0  0  0
   -8.5200   -6.1440    0.5350 H   0  0  0  0  0  0  0  0  0  0  0  0
   10.0500    1.1340    2.0320 C   0  0  0  0  0  0  0  0  0  0  0  0
   11.0420    1.5970    2.0140 H   0  0  0  0  0  0  0  0  0  0  0  0
    9.8470    0.8240    3.0620 H   0  0  0  0  0  0  0  0  0  0  0  0
    9.3270    1.8830    1.6930 H   0  0  0  0  0  0  0  0  0  0  0  0
    0.9910    2.8040    0.1570 H   0  0  0  0  0  0  0  0  0  0  0  0
   -1.7220    3.6500    1.2480 H   0  0  0  0  0  0  0  0  0  0  0  0
   -6.1180   -1.2550    1.8410 H   0  0  0  0  0  0  0  0  0  0  0  0
   -5.5370   -1.2410   -1.1460 H   0  0  0  0  0  0  0  0  0  0  0  0
   -0.8030    1.1980    2.0260 H   0  0  0  0  0  0  0  0  0  0  0  0
   -1.3830    2.6930   -1.6340 H   0  0  0  0  0  0  0  0  0  0  0  0
   -6.5250   -3.5780    1.8180 H   0  0  0  0  0  0  0  0  0  0  0  0
   -3.4390   -0.7870    1.0280 H   0  0  0  0  0  0  0  0  0  0  0  0
   -2.6830    1.2210    0.7100 H   0  0  0  0  0  0  0  0  0  0  0  0
    5.6900   -4.1970    0.8560 H   0  0  0  0  0  0  0  0  0  0  0  0
   -4.2190   -2.7780    2.2670 H   0  0  0  0  0  0  0  0  0  0  0  0
  1  2  1  0  0  0  0
  1  5  1  0  0  0  0
  1 24  1  0  0  0  0
  1102  1  0  0  0  0
  2  7  1  0  0  0  0
  2 25  1  0  0  0  0
  2103  1  0  0  0  0
  3  4  1  0  0  0  0
  3  8  1  0  0  0  0
  3 26  1  0  0  0  0
  3104  1  0  0  0  0
  4 11  1  0  0  0  0
  4 27  1  0  0  0  0
  4105  1  0  0  0  0
  5 12  1  0  0  0  0
  5 30  1  0  0  0  0
  5106  1  0  0  0  0
  6  9  1  0  0  0  0
  6 10  2  0  0  0  0
  6 16  1  0  0  0  0
  7 13  1  0  0  0  0
  7 33  1  0  0  0  0
  7107  1  0  0  0  0
  8 21  1  0  0  0  0
  8 34  1  0  0  0  0
  8108  1  0  0  0  0
  9 18  1  0  0  0  0
  9 50  2  0  0  0  0
 10 14  1  0  0  0  0
 10 28  1  0  0  0  0
 11 15  1  0  0  0  0
 11 39  1  0  0  0  0
 11109  1  0  0  0  0
 12 13  1  0  0  0  0
 13 47  1  0  0  0  0
 13110  1  0  0  0  0
 14 17  1  0  0  0  0
 15 21  1  0  0  0  0
 16 31  2  0  0  0  0
 16 63  1  0  0  0  0
 17 18  1  0  0  0  0
 17 35  1  0  0  0  0
 17111  1  0  0  0  0
 18 19  1  0  0  0  0
 18 20  1  0  0  0  0
 21 66  1  0  0  0  0
 21112  1  0  0  0  0
 22 36  2  0  0  0  0
 22 38  1  0  0  0  0
 22 51  1  0  0  0  0
 23 28  2  0  0  0  0
 23 30  1  0  0  0  0
 23 31  1  0  0  0  0
 24 42  1  0  0  0  0
 25 41  1  0  0  0  0
 26 40  1  0  0  0  0
 27 43  1  0  0  0  0
 28 29  1  0  0  0  0
 31 32  1  0  0  0  0
 33 44  1  0  0  0  0
 34 45  1  0  0  0  0
 35 36  1  0  0  0  0
 35 52  2  0  0  0  0
 36 37  1  0  0  0  0
 38 46  1  0  0  0  0
 39 47  1  0  0  0  0
 40 54  2  0  0  0  0
 40 74  1  0  0  0  0
 41 57  2  0  0  0  0
 41 86  1  0  0  0  0
 42 59  2  0  0  0  0
 42 78  1  0  0  0  0
 43 55  2  0  0  0  0
 43 70  1  0  0  0  0
 44 58  2  0  0  0  0
 44 82  1  0  0  0  0
 45 56  2  0  0  0  0
 45 94  1  0  0  0  0
 46 60  2  0  0  0  0
 46 90  1  0  0  0  0
 47 48  1  0  0  0  0
 47 49  1  0  0  0  0
 51 61  2  0  0  0  0
 51 65  1  0  0  0  0
 52 53  1  0  0  0  0
 52 61  1  0  0  0  0
 61 62  1  0  0  0  0
 63 64  1  0  0  0  0
 65 98  1  0  0  0  0
 66 67  1  0  0  0  0
 66 68  1  0  0  0  0
 66 69  1  0  0  0  0
 70 71  1  0  0  0  0
 70 72  1  0  0  0  0
 70 73  1  0  0  0  0
 74 75  1  0  0  0  0
 74 76  1  0  0  0  0
 74 77  1  0  0  0  0
 78 79  1  0  0  0  0
 78 80  1  0  0  0  0
 78 81  1  0  0  0  0
 82 83  1  0  0  0  0
 82 84  1  0  0  0  0
 82 85  1  0  0  0  0
 86 87  1  0  0  0  0
 86 88  1  0  0  0  0
 86 89  1  0  0  0  0
 90 91  1  0  0  0  0
 90 92  1  0  0  0  0
 90 93  1  0  0  0  0
 94 95  1  0  0  0  0
 94 96  1  0  0  0  0
 94 97  1  0  0  0  0
 98 99  1  0  0  0  0
 98100  1  0  0  0  0
 98101  1  0  0  0  0
M  END
>  <IDNUMBER>
AA-504/21004030

>  <NAME>
Naringenin; Derivative of

>  <ADD_INFO>
http://www.specs.net/enter.php?specsid=AA-504/21004030

>  <H_ACCEPTORS>
17

>  <H_DONORS>
1

>  <ROTATABLE_BONDS>
21

>  <LOGP>
2.26

>  <LOGS>
-7.1399999

>  <TPSA>
276.78

>  <PRICE>
N06

$$$$
AA-504/21004033
  MOE2011           3D

108112  0  0  1  0  0  0  0  0999 V2000
   -2.1020   -0.9360    0.6190 C   0  0  3  0  0  0  0  0  0  0  0  0
   -3.7700    1.9490    1.2370 C   0  0  3  0  0  0  0  0  0  0  0  0
   -2.8790   -2.2670    0.8060 C   0  0  2  0  0  0  0  0  0  0  0  0
   -3.5780    3.0270    0.1620 C   0  0  3  0  0  0  0  0  0  0  0  0
   -4.0110    0.5580    0.6150 C   0  0  2  0  0  0  0  0  0  0  0  0
   -0.7430   -1.1840   -0.1100 C   0  0  1  0  0  0  0  0  0  0  0  0
    2.8880    2.1190    0.7260 C   0  0  0  0  0  0  0  0  0  0  0  0
   -1.8840   -3.4320    0.9120 C   0  0  3  0  0  0  0  0  0  0  0  0
   -4.7820    2.9820   -0.7970 C   0  0  2  0  0  0  0  0  0  0  0  0
    3.9700    2.9620    1.2300 C   0  0  0  0  0  0  0  0  0  0  0  0
    2.8650    1.7860   -0.6210 C   0  0  0  0  0  0  0  0  0  0  0  0
   -2.8730    0.0520   -0.0720 O   0  0  0  0  0  0  0  0  0  0  0  0
   -0.8800   -2.2730   -1.0280 O   0  0  0  0  0  0  0  0  0  0  0  0
   -5.1410    0.6060   -0.2690 O   0  0  0  0  0  0  0  0  0  0  0  0
   -1.0420   -3.5500   -0.3810 C   0  0  2  0  0  0  0  0  0  0  0  0
    3.8350    2.1360   -1.5180 O   0  0  0  0  0  0  0  0  0  0  0  0
    1.8520    1.7220    1.5780 C   0  0  0  0  0  0  0  0  0  0  0  0
    4.8460    3.6150    0.2050 C   0  0  0  0  0  0  0  0  0  0  0  0
    4.3240    4.5250   -0.1130 H   0  0  0  0  0  0  0  0  0  0  0  0
    5.7910    3.9080    0.6730 H   0  0  0  0  0  0  0  0  0  0  0  0
    5.0590    2.6910   -0.9960 C   0  0  1  0  0  0  0  0  0  0  0  0
   -5.0620    1.5650   -1.3330 C   0  0  3  0  0  0  0  0  0  0  0  0
    0.7540    0.6400   -0.2580 C   0  0  0  0  0  0  0  0  0  0  0  0
   -2.6490    1.9650    2.1410 O   0  0  0  0  0  0  0  0  0  0  0  0
   -2.3580    2.8160   -0.5930 O   0  0  0  0  0  0  0  0  0  0  0  0
   -3.7440   -2.4920   -0.3300 O   0  0  0  0  0  0  0  0  0  0  0  0
    1.7820    1.0550   -1.1150 C   0  0  0  0  0  0  0  0  0  0  0  0
    1.7270    0.8100   -2.1730 H   0  0  0  0  0  0  0  0  0  0  0  0
   -0.2900   -0.0310   -0.8290 O   0  0  0  0  0  0  0  0  0  0  0  0
    0.7830    0.9870    1.0900 C   0  0  0  0  0  0  0  0  0  0  0  0
   -0.0230    0.7320    1.7630 H   0  0  0  0  0  0  0  0  0  0  0  0
   -2.5740   -4.6520    1.2320 O   0  0  0  0  0  0  0  0  0  0  0  0
   -4.5850    3.8940   -1.9010 O   0  0  0  0  0  0  0  0  0  0  0  0
   -2.9020    1.5410    3.4110 C   0  0  0  0  0  0  0  0  0  0  0  0
   -5.0670   -2.6970   -0.0930 C   0  0  0  0  0  0  0  0  0  0  0  0
   -1.2830    3.6400   -0.5720 C   0  0  0  0  0  0  0  0  0  0  0  0
   -4.9710    5.1900   -1.9110 C   0  0  0  0  0  0  0  0  0  0  0  0
   -1.8530   -5.5700    1.9370 C   0  0  0  0  0  0  0  0  0  0  0  0
   10.3410   -1.0040    0.4360 C   0  0  0  0  0  0  0  0  0  0  0  0
    6.1630    1.6550   -0.7990 C   0  0  0  0  0  0  0  0  0  0  0  0
    0.2940   -5.5640   -2.3730 C   0  0  0  0  0  0  0  0  0  0  0  0
    4.0320    3.1720    2.4400 O   0  0  0  0  0  0  0  0  0  0  0  0
   -1.6190   -4.5080   -1.4360 C   0  0  0  0  0  0  0  0  0  0  0  0
   -2.5350   -4.1000   -1.8730 H   0  0  0  0  0  0  0  0  0  0  0  0
   -1.8590   -5.4950   -1.0280 H   0  0  0  0  0  0  0  0  0  0  0  0
    9.2880   -1.1530   -0.4650 O   0  0  0  0  0  0  0  0  0  0  0  0
   -0.6940   -4.6450   -2.5360 O   0  0  0  0  0  0  0  0  0  0  0  0
   -0.6990   -5.4210    2.3140 O   0  0  0  0  0  0  0  0  0  0  0  0
   -3.9680    1.0950    3.8100 O   0  0  0  0  0  0  0  0  0  0  0  0
   -4.7070    5.9210   -2.8600 O   0  0  0  0  0  0  0  0  0  0  0  0
   -0.4100    3.5780   -1.4340 O   0  0  0  0  0  0  0  0  0  0  0  0
   -5.6040   -2.7600    1.0040 O   0  0  0  0  0  0  0  0  0  0  0  0
   10.4860   -0.1120    1.2590 O   0  0  0  0  0  0  0  0  0  0  0  0
    0.4250   -6.3130   -1.4140 O   0  0  0  0  0  0  0  0  0  0  0  0
    7.4950    2.0950   -0.6710 C   0  0  0  0  0  0  0  0  0  0  0  0
    7.7300    3.1580   -0.6970 H   0  0  0  0  0  0  0  0  0  0  0  0
    5.9190    0.2740   -0.7900 C   0  0  0  0  0  0  0  0  0  0  0  0
    4.9140   -0.1190   -0.9160 H   0  0  0  0  0  0  0  0  0  0  0  0
    1.8220    2.0580    2.9060 O   0  0  0  0  0  0  0  0  0  0  0  0
    2.6630    2.5450    3.0920 H   0  0  0  0  0  0  0  0  0  0  0  0
    8.2760   -0.1760   -0.5150 C   0  0  0  0  0  0  0  0  0  0  0  0
    6.9690   -0.6390   -0.6510 C   0  0  0  0  0  0  0  0  0  0  0  0
    6.7640   -1.7050   -0.6630 H   0  0  0  0  0  0  0  0  0  0  0  0
    8.5500    1.1880   -0.5380 C   0  0  0  0  0  0  0  0  0  0  0  0
    9.5670    1.5580   -0.4650 H   0  0  0  0  0  0  0  0  0  0  0  0
   -4.1700    1.0960   -2.4830 C   0  0  0  0  0  0  0  0  0  0  0  0
   -4.3240    1.7120   -3.3740 H   0  0  0  0  0  0  0  0  0  0  0  0
   -4.4010    0.0570   -2.7420 H   0  0  0  0  0  0  0  0  0  0  0  0
   -3.1060    1.1300   -2.2420 H   0  0  0  0  0  0  0  0  0  0  0  0
   -5.7510    5.6920   -0.7330 C   0  0  0  0  0  0  0  0  0  0  0  0
   -6.7120    5.1780   -0.6670 H   0  0  0  0  0  0  0  0  0  0  0  0
   -5.9550    6.7590   -0.8730 H   0  0  0  0  0  0  0  0  0  0  0  0
   -5.1760    5.5900    0.1890 H   0  0  0  0  0  0  0  0  0  0  0  0
   -1.6680    1.6580    4.2520 C   0  0  0  0  0  0  0  0  0  0  0  0
   -1.1390    2.5870    4.0190 H   0  0  0  0  0  0  0  0  0  0  0  0
   -1.0190    0.7970    4.0750 H   0  0  0  0  0  0  0  0  0  0  0  0
   -1.9520    1.6900    5.3080 H   0  0  0  0  0  0  0  0  0  0  0  0
   -2.6770   -6.7970    2.1760 C   0  0  0  0  0  0  0  0  0  0  0  0
   -3.5910   -6.5310    2.7130 H   0  0  0  0  0  0  0  0  0  0  0  0
   -2.1090   -7.5020    2.7880 H   0  0  0  0  0  0  0  0  0  0  0  0
   -2.9160   -7.2730    1.2220 H   0  0  0  0  0  0  0  0  0  0  0  0
   -5.7940   -2.8500   -1.3940 C   0  0  0  0  0  0  0  0  0  0  0  0
   -5.7170   -1.9270   -1.9730 H   0  0  0  0  0  0  0  0  0  0  0  0
   -6.8510   -3.0520   -1.1980 H   0  0  0  0  0  0  0  0  0  0  0  0
   -5.3780   -3.6920   -1.9530 H   0  0  0  0  0  0  0  0  0  0  0  0
   -1.1990    4.6400    0.5410 C   0  0  0  0  0  0  0  0  0  0  0  0
   -1.3590    4.1610    1.5080 H   0  0  0  0  0  0  0  0  0  0  0  0
   -1.9070    5.4550    0.3740 H   0  0  0  0  0  0  0  0  0  0  0  0
   -0.1890    5.0640    0.5580 H   0  0  0  0  0  0  0  0  0  0  0  0
   11.2920   -2.1490    0.2530 C   0  0  0  0  0  0  0  0  0  0  0  0
   11.6470   -2.1770   -0.7810 H   0  0  0  0  0  0  0  0  0  0  0  0
   10.7970   -3.0870    0.5160 H   0  0  0  0  0  0  0  0  0  0  0  0
   12.1550   -2.0110    0.9100 H   0  0  0  0  0  0  0  0  0  0  0  0
    1.2110   -5.5420   -3.5570 C   0  0  0  0  0  0  0  0  0  0  0  0
    1.6460   -4.5450   -3.6700 H   0  0  0  0  0  0  0  0  0  0  0  0
    0.6610   -5.8260   -4.4570 H   0  0  0  0  0  0  0  0  0  0  0  0
    2.0220   -6.2580   -3.4010 H   0  0  0  0  0  0  0  0  0  0  0  0
   -1.8530   -0.5340    1.6070 H   0  0  0  0  0  0  0  0  0  0  0  0
   -4.6780    2.2350    1.7870 H   0  0  0  0  0  0  0  0  0  0  0  0
   -3.4680   -2.2130    1.7280 H   0  0  0  0  0  0  0  0  0  0  0  0
   -3.5450    4.0100    0.6370 H   0  0  0  0  0  0  0  0  0  0  0  0
   -4.2930   -0.1280    1.4180 H   0  0  0  0  0  0  0  0  0  0  0  0
    0.0150   -1.4990    0.6220 H   0  0  0  0  0  0  0  0  0  0  0  0
   -1.2160   -3.1760    1.7470 H   0  0  0  0  0  0  0  0  0  0  0  0
   -5.6720    3.2660   -0.2230 H   0  0  0  0  0  0  0  0  0  0  0  0
   -0.0370   -3.8970   -0.1110 H   0  0  0  0  0  0  0  0  0  0  0  0
    5.4200    3.3280   -1.8140 H   0  0  0  0  0  0  0  0  0  0  0  0
   -6.0730    1.5920   -1.7620 H   0  0  0  0  0  0  0  0  0  0  0  0
  1  3  1  0  0  0  0
  1  6  1  0  0  0  0
  1 12  1  0  0  0  0
  1 98  1  0  0  0  0
  2  4  1  0  0  0  0
  2  5  1  0  0  0  0
  2 24  1  0  0  0  0
  2 99  1  0  0  0  0
  3  8  1  0  0  0  0
  3 26  1  0  0  0  0
  3100  1  0  0  0  0
  4  9  1  0  0  0  0
  4 25  1  0  0  0  0
  4101  1  0  0  0  0
  5 12  1  0  0  0  0
  5 14  1  0  0  0  0
  5102  1  0  0  0  0
  6 13  1  0  0  0  0
  6 29  1  0  0  0  0
  6103  1  0  0  0  0
  7 10  1  0  0  0  0
  7 11  2  0  0  0  0
  7 17  1  0  0  0  0
  8 15  1  0  0  0  0
  8 32  1  0  0  0  0
  8104  1  0  0  0  0
  9 22  1  0  0  0  0
  9 33  1  0  0  0  0
  9105  1  0  0  0  0
 10 18  1  0  0  0  0
 10 42  2  0  0  0  0
 11 16  1  0  0  0  0
 11 27  1  0  0  0  0
 13 15  1  0  0  0  0
 14 22  1  0  0  0  0
 15 43  1  0  0  0  0
 15106  1  0  0  0  0
 16 21  1  0  0  0  0
 17 30  2  0  0  0  0
 17 59  1  0  0  0  0
 18 19  1  0  0  0  0
 18 20  1  0  0  0  0
 18 21  1  0  0  0  0
 21 40  1  0  0  0  0
 21107  1  0  0  0  0
 22 66  1  0  0  0  0
 22108  1  0  0  0  0
 23 27  2  0  0  0  0
 23 29  1  0  0  0  0
 23 30  1  0  0  0  0
 24 34  1  0  0  0  0
 25 36  1  0  0  0  0
 26 35  1  0  0  0  0
 27 28  1  0  0  0  0
 30 31  1  0  0  0  0
 32 38  1  0  0  0  0
 33 37  1  0  0  0  0
 34 49  2  0  0  0  0
 34 74  1  0  0  0  0
 35 52  2  0  0  0  0
 35 82  1  0  0  0  0
 36 51  2  0  0  0  0
 36 86  1  0  0  0  0
 37 50  2  0  0  0  0
 37 70  1  0  0  0  0
 38 48  2  0  0  0  0
 38 78  1  0  0  0  0
 39 46  1  0  0  0  0
 39 53  2  0  0  0  0
 39 90  1  0  0  0  0
 40 55  2  0  0  0  0
 40 57  1  0  0  0  0
 41 47  1  0  0  0  0
 41 54  2  0  0  0  0
 41 94  1  0  0  0  0
 43 44  1  0  0  0  0
 43 45  1  0  0  0  0
 43 47  1  0  0  0  0
 46 61  1  0  0  0  0
 55 56  1  0  0  0  0
 55 64  1  0  0  0  0
 57 58  1  0  0  0  0
 57 62  2  0  0  0  0
 59 60  1  0  0  0  0
 61 62  1  0  0  0  0
 61 64  2  0  0  0  0
 62 63  1  0  0  0  0
 64 65  1  0  0  0  0
 66 67  1  0  0  0  0
 66 68  1  0  0  0  0
 66 69  1  0  0  0  0
 70 71  1  0  0  0  0
 70 72  1  0  0  0  0
 70 73  1  0  0  0  0
 74 75  1  0  0  0  0
 74 76  1  0  0  0  0
 74 77  1  0  0  0  0
 78 79  1  0  0  0  0
 78 80  1  0  0  0  0
 78 81  1  0  0  0  0
 82 83  1  0  0  0  0
 82 84  1  0  0  0  0
 82 85  1  0  0  0  0
 86 87  1  0  0  0  0
 86 88  1  0  0  0  0
 86 89  1  0  0  0  0
 90 91  1  0  0  0  0
 90 92  1  0  0  0  0
 90 93  1  0  0  0  0
 94 95  1  0  0  0  0
 94 96  1  0  0  0  0
 94 97  1  0  0  0  0
M  END
>  <IDNUMBER>
AA-504/21004033

>  <NAME>
Naringenin; Derivative of

>  <ADD_INFO>
http://www.specs.net/enter.php?specsid=AA-504/21004033

>  <H_ACCEPTORS>
17

>  <H_DONORS>
1

>  <ROTATABLE_BONDS>
20

>  <LOGP>
2.1700001

>  <LOGS>
-6.8499999

>  <TPSA>
267.54999

>  <PRICE>
N06

$$$$
AA-504/21041037
  MOE2011           3D

 35 36  0  0  1  0  0  0  0  0999 V2000
   -0.2570   -0.6600   -0.0120 C   0  0  1  0  0  0  0  0  0  0  0  0
   -1.3940   -1.6750    0.1970 C   0  0  3  0  0  0  0  0  0  0  0  0
   -2.7040   -1.1380   -0.3790 C   0  0  2  0  0  0  0  0  0  0  0  0
   -0.6290    0.6140    0.5300 O   0  0  0  0  0  0  0  0  0  0  0  0
   -3.0100    0.2570    0.1630 C   0  0  3  0  0  0  0  0  0  0  0  0
   -1.8030    1.1650   -0.0880 C   0  0  1  0  0  0  0  0  0  0  0  0
    0.8970   -1.1690    0.6700 O   0  0  0  0  0  0  0  0  0  0  0  0
   -1.0980   -2.9190   -0.4540 O   0  0  0  0  0  0  0  0  0  0  0  0
   -1.9040   -3.4620   -0.3490 H   0  0  0  0  0  0  0  0  0  0  0  0
   -3.7520   -2.0510   -0.0350 O   0  0  0  0  0  0  0  0  0  0  0  0
   -4.5110   -1.8370   -0.6070 H   0  0  0  0  0  0  0  0  0  0  0  0
    2.1170   -0.6560    0.3250 C   0  0  0  0  0  0  0  0  0  0  0  0
   -4.1670    0.7780   -0.4860 O   0  0  0  0  0  0  0  0  0  0  0  0
   -4.9460    0.4290   -0.0160 H   0  0  0  0  0  0  0  0  0  0  0  0
    4.7190    0.1740   -0.2280 C   0  0  0  0  0  0  0  0  0  0  0  0
   -2.0100    2.5580    0.5090 C   0  0  0  0  0  0  0  0  0  0  0  0
   -2.1940    2.5050    1.5870 H   0  0  0  0  0  0  0  0  0  0  0  0
   -2.8410    3.0860    0.0320 H   0  0  0  0  0  0  0  0  0  0  0  0
    2.3400    0.4870   -0.4470 C   0  0  0  0  0  0  0  0  0  0  0  0
    1.5210    1.0820   -0.8380 H   0  0  0  0  0  0  0  0  0  0  0  0
    3.2090   -1.3700    0.8290 C   0  0  0  0  0  0  0  0  0  0  0  0
    3.0430   -2.2560    1.4360 H   0  0  0  0  0  0  0  0  0  0  0  0
    4.5120   -0.9580    0.5500 C   0  0  0  0  0  0  0  0  0  0  0  0
    5.3570   -1.5190    0.9360 H   0  0  0  0  0  0  0  0  0  0  0  0
    3.6450    0.9030   -0.7270 C   0  0  0  0  0  0  0  0  0  0  0  0
    3.8000    1.7930   -1.3290 H   0  0  0  0  0  0  0  0  0  0  0  0
    6.0080    0.5410   -0.4800 O   0  0  0  0  0  0  0  0  0  0  0  0
    6.0120    1.3450   -1.0240 H   0  0  0  0  0  0  0  0  0  0  0  0
   -0.8210    3.3260    0.3200 O   0  0  0  0  0  0  0  0  0  0  0  0
   -0.0950    2.7530    0.6390 H   0  0  0  0  0  0  0  0  0  0  0  0
   -0.0470   -0.5780   -1.0880 H   0  0  0  0  0  0  0  0  0  0  0  0
   -1.5100   -1.8990    1.2650 H   0  0  0  0  0  0  0  0  0  0  0  0
   -2.6580   -1.1280   -1.4760 H   0  0  0  0  0  0  0  0  0  0  0  0
   -3.2240    0.1960    1.2380 H   0  0  0  0  0  0  0  0  0  0  0  0
   -1.6070    1.2800   -1.1620 H   0  0  0  0  0  0  0  0  0  0  0  0
  1  2  1  0  0  0  0
  1  4  1  0  0  0  0
  1  7  1  0  0  0  0
  1 31  1  0  0  0  0
  2  3  1  0  0  0  0
  2  8  1  0  0  0  0
  2 32  1  0  0  0  0
  3  5  1  0  0  0  0
  3 10  1  0  0  0  0
  3 33  1  0  0  0  0
  4  6  1  0  0  0  0
  5  6  1  0  0  0  0
  5 13  1  0  0  0  0
  5 34  1  0  0  0  0
  6 16  1  0  0  0  0
  6 35  1  0  0  0  0
  7 12  1  0  0  0  0
  8  9  1  0  0  0  0
 10 11  1  0  0  0  0
 12 19  1  0  0  0  0
 12 21  2  0  0  0  0
 13 14  1  0  0  0  0
 15 23  2  0  0  0  0
 15 25  1  0  0  0  0
 15 27  1  0  0  0  0
 16 17  1  0  0  0  0
 16 18  1  0  0  0  0
 16 29  1  0  0  0  0
 19 20  1  0  0  0  0
 19 25  2  0  0  0  0
 21 22  1  0  0  0  0
 21 23  1  0  0  0  0
 23 24  1  0  0  0  0
 25 26  1  0  0  0  0
 27 28  1  0  0  0  0
 29 30  1  0  0  0  0
M  END
>  <IDNUMBER>
AA-504/21041037

>  <NAME>
Arbutin (Hydroquinone-glucose; Arbutoside; Ericolin)

>  <ADD_INFO>
http://www.specs.net/enter.php?specsid=AA-504/21041037

>  <H_ACCEPTORS>
5

>  <H_DONORS>
5

>  <ROTATABLE_BONDS>
3

>  <LOGP>
-1.35

>  <LOGS>
0.55000001

>  <TPSA>
119.61

>  <PRICE>
N06

$$$$
AA-504/21041038
  MOE2011           3D

 89 95  0  0  1  0  0  0  0  0999 V2000
    0.7620    1.4690    0.0160 C   0  0  2  0  0  0  0  0  0  0  0  0
   -1.0820   -1.1010   -0.2780 C   0  0  1  0  0  0  0  0  0  0  0  0
   -0.6940    1.0600   -0.1760 C   0  0  1  0  0  0  0  0  0  0  0  0
    1.4400    0.2590   -0.8130 C   0  0  2  0  0  0  0  0  0  0  0  0
   -1.1280   -0.0710    0.8210 C   0  0  3  0  0  0  0  0  0  0  0  0
    2.5160   -0.7870    0.9390 C   0  0  2  0  0  0  0  0  0  0  0  0
   -2.2240   -0.2700   -1.1970 C   0  0  3  0  0  0  0  0  0  0  0  0
    0.5850   -1.1140   -0.6370 C   0  0  1  0  0  0  0  0  0  0  0  0
    2.8590   -0.1030   -0.3760 C   0  0  2  0  0  0  0  0  0  0  0  0
   -3.6180   -0.7220   -0.6890 C   0  0  2  0  0  0  0  0  0  0  0  0
   -2.5100    0.2070    1.4200 N   0  3  3  0  0  0  0  0  0  0  0  0
   -2.7310    1.1910    1.1350 H   0  0  0  0  0  0  0  0  0  0  0  0
   -1.9450    1.3590   -0.9530 C   0  0  1  0  0  0  0  0  0  0  0  0
    1.3660    1.5210    1.4380 C   0  0  0  0  0  0  0  0  0  0  0  0
    2.1240    2.3170    1.4570 H   0  0  0  0  0  0  0  0  0  0  0  0
    0.6050    1.8560    2.1530 H   0  0  0  0  0  0  0  0  0  0  0  0
    1.4200   -1.7910    0.4980 C   0  0  0  0  0  0  0  0  0  0  0  0
    1.8880   -2.7000    0.0980 H   0  0  0  0  0  0  0  0  0  0  0  0
    0.8250   -2.1190    1.3560 H   0  0  0  0  0  0  0  0  0  0  0  0
    3.6840    1.0670   -0.2370 O   0  0  0  0  0  0  0  0  0  0  0  0
    2.0240    0.2310    2.0050 C   0  0  2  0  0  0  0  0  0  0  0  0
   -3.7090   -0.5430    0.8540 C   0  0  0  0  0  0  0  0  0  0  0  0
   -3.8050   -1.4830    1.4030 H   0  0  0  0  0  0  0  0  0  0  0  0
   -4.5850    0.0560    1.1330 H   0  0  0  0  0  0  0  0  0  0  0  0
    5.0360    0.9720   -0.1280 C   0  0  0  0  0  0  0  0  0  0  0  0
    1.0540    2.6710   -0.7510 O   0  0  0  0  0  0  0  0  0  0  0  0
   -1.4870   -2.5820   -0.0130 C   0  0  2  0  0  0  0  0  0  0  0  0
   -3.8120   -2.2290   -1.0270 C   0  0  0  0  0  0  0  0  0  0  0  0
   -4.5300   -2.6790   -0.3300 H   0  0  0  0  0  0  0  0  0  0  0  0
   -4.2660   -2.3480   -2.0190 H   0  0  0  0  0  0  0  0  0  0  0  0
    0.6420    3.9340   -0.4990 C   0  0  0  0  0  0  0  0  0  0  0  0
    5.7030    1.6950    0.5990 O   0  0  0  0  0  0  0  0  0  0  0  0
    5.6880   -0.0060   -1.0150 C   0  0  0  0  0  0  0  0  0  0  0  0
    3.6270   -1.5090    1.4620 O   0  0  0  0  0  0  0  0  0  0  0  0
    4.0210   -0.9000    2.1290 H   0  0  0  0  0  0  0  0  0  0  0  0
    0.8010    4.8270   -1.3280 O   0  0  0  0  0  0  0  0  0  0  0  0
   -2.5260   -3.0480   -1.0310 C   0  0  0  0  0  0  0  0  0  0  0  0
   -2.0780   -2.9920   -2.0330 H   0  0  0  0  0  0  0  0  0  0  0  0
   -2.7830   -4.1030   -0.8820 H   0  0  0  0  0  0  0  0  0  0  0  0
   -2.8700    2.0420   -0.1140 O   0  0  0  0  0  0  0  0  0  0  0  0
   -4.7930    0.0380   -1.3570 C   0  0  0  0  0  0  0  0  0  0  0  0
   -4.8830    1.0620   -0.9890 H   0  0  0  0  0  0  0  0  0  0  0  0
   -5.7390   -0.4670   -1.1200 H   0  0  0  0  0  0  0  0  0  0  0  0
   -2.5050    0.1990    2.9190 C   0  0  0  0  0  0  0  0  0  0  0  0
   -2.2800   -0.8140    3.2630 H   0  0  0  0  0  0  0  0  0  0  0  0
   -3.4900    0.5210    3.2670 H   0  0  0  0  0  0  0  0  0  0  0  0
   -1.7440    0.9060    3.2580 H   0  0  0  0  0  0  0  0  0  0  0  0
    3.1920    0.5740    2.7880 O   0  0  0  0  0  0  0  0  0  0  0  0
   -1.9050   -2.7530    1.3400 O   0  0  0  0  0  0  0  0  0  0  0  0
   -4.6210    0.0690   -2.7730 O   0  0  0  0  0  0  0  0  0  0  0  0
    0.0160    4.2180    0.8310 C   0  0  0  0  0  0  0  0  0  0  0  0
   -0.7510    3.4860    1.0840 H   0  0  0  0  0  0  0  0  0  0  0  0
   -0.4830    5.1920    0.7830 H   0  0  0  0  0  0  0  0  0  0  0  0
    0.7840    4.2700    1.6050 H   0  0  0  0  0  0  0  0  0  0  0  0
    6.5060   -0.9900   -0.4560 C   0  0  0  0  0  0  0  0  0  0  0  0
    6.6390   -1.0510    0.6220 H   0  0  0  0  0  0  0  0  0  0  0  0
    5.5290    0.0920   -2.4020 C   0  0  0  0  0  0  0  0  0  0  0  0
    4.9110    0.8740   -2.8360 H   0  0  0  0  0  0  0  0  0  0  0  0
   -3.2690    3.2960   -0.6720 C   0  0  0  0  0  0  0  0  0  0  0  0
   -3.9560    3.7770    0.0280 H   0  0  0  0  0  0  0  0  0  0  0  0
   -3.7880    3.1410   -1.6230 H   0  0  0  0  0  0  0  0  0  0  0  0
   -2.4030    3.9450   -0.8200 H   0  0  0  0  0  0  0  0  0  0  0  0
    2.8870    1.2030    4.0280 C   0  0  0  0  0  0  0  0  0  0  0  0
    3.8260    1.3740    4.5620 H   0  0  0  0  0  0  0  0  0  0  0  0
    2.2520    0.5550    4.6400 H   0  0  0  0  0  0  0  0  0  0  0  0
    2.4000    2.1690    3.8700 H   0  0  0  0  0  0  0  0  0  0  0  0
   -1.9820   -4.1110    1.7640 C   0  0  0  0  0  0  0  0  0  0  0  0
   -2.1770   -4.1180    2.8400 H   0  0  0  0  0  0  0  0  0  0  0  0
   -1.0360   -4.6310    1.5800 H   0  0  0  0  0  0  0  0  0  0  0  0
   -2.8060   -4.6280    1.2670 H   0  0  0  0  0  0  0  0  0  0  0  0
   -5.7160    0.6980   -3.4270 C   0  0  0  0  0  0  0  0  0  0  0  0
   -5.5220    0.6940   -4.5030 H   0  0  0  0  0  0  0  0  0  0  0  0
   -5.8170    1.7350   -3.0930 H   0  0  0  0  0  0  0  0  0  0  0  0
   -6.6430    0.1480   -3.2370 H   0  0  0  0  0  0  0  0  0  0  0  0
    6.1740   -0.8240   -3.2320 C   0  0  0  0  0  0  0  0  0  0  0  0
    6.0630   -0.7590   -4.3120 H   0  0  0  0  0  0  0  0  0  0  0  0
    7.1420   -1.9060   -1.2910 C   0  0  0  0  0  0  0  0  0  0  0  0
    7.7760   -2.6810   -0.8670 H   0  0  0  0  0  0  0  0  0  0  0  0
    6.9740   -1.8240   -2.6760 C   0  0  0  0  0  0  0  0  0  0  0  0
    7.4770   -2.5370   -3.3240 H   0  0  0  0  0  0  0  0  0  0  0  0
   -0.4080    0.7350   -1.1870 H   0  0  0  0  0  0  0  0  0  0  0  0
    0.6980   -1.6970   -1.5610 H   0  0  0  0  0  0  0  0  0  0  0  0
    1.4780    0.5340   -1.8790 H   0  0  0  0  0  0  0  0  0  0  0  0
   -0.4620   -0.2760    1.6490 H   0  0  0  0  0  0  0  0  0  0  0  0
   -2.0540   -0.5100   -2.2550 H   0  0  0  0  0  0  0  0  0  0  0  0
    3.2960   -0.8110   -1.0880 H   0  0  0  0  0  0  0  0  0  0  0  0
   -1.8020    1.8620   -1.9210 H   0  0  0  0  0  0  0  0  0  0  0  0
    1.3390   -0.2830    2.6900 H   0  0  0  0  0  0  0  0  0  0  0  0
   -0.6140   -3.2270   -0.1660 H   0  0  0  0  0  0  0  0  0  0  0  0
  1  3  1  0  0  0  0
  1  4  1  0  0  0  0
  1 14  1  0  0  0  0
  1 26  1  0  0  0  0
  2  5  1  0  0  0  0
  2  7  1  0  0  0  0
  2  8  1  0  0  0  0
  2 27  1  0  0  0  0
  3  5  1  0  0  0  0
  3 13  1  0  0  0  0
  3 81  1  0  0  0  0
  4  8  1  0  0  0  0
  4  9  1  0  0  0  0
  4 83  1  0  0  0  0
  5 11  1  0  0  0  0
  5 84  1  0  0  0  0
  6  9  1  0  0  0  0
  6 17  1  0  0  0  0
  6 21  1  0  0  0  0
  6 34  1  0  0  0  0
  7 10  1  0  0  0  0
  7 13  1  0  0  0  0
  7 85  1  0  0  0  0
  8 17  1  0  0  0  0
  8 82  1  0  0  0  0
  9 20  1  0  0  0  0
  9 86  1  0  0  0  0
 10 22  1  0  0  0  0
 10 28  1  0  0  0  0
 10 41  1  0  0  0  0
 11 12  1  0  0  0  0
 11 22  1  0  0  0  0
 11 44  1  0  0  0  0
 13 40  1  0  0  0  0
 13 87  1  0  0  0  0
 14 15  1  0  0  0  0
 14 16  1  0  0  0  0
 14 21  1  0  0  0  0
 17 18  1  0  0  0  0
 17 19  1  0  0  0  0
 20 25  1  0  0  0  0
 21 48  1  0  0  0  0
 21 88  1  0  0  0  0
 22 23  1  0  0  0  0
 22 24  1  0  0  0  0
 25 32  2  0  0  0  0
 25 33  1  0  0  0  0
 26 31  1  0  0  0  0
 27 37  1  0  0  0  0
 27 49  1  0  0  0  0
 27 89  1  0  0  0  0
 28 29  1  0  0  0  0
 28 30  1  0  0  0  0
 28 37  1  0  0  0  0
 31 36  2  0  0  0  0
 31 51  1  0  0  0  0
 33 55  2  0  0  0  0
 33 57  1  0  0  0  0
 34 35  1  0  0  0  0
 37 38  1  0  0  0  0
 37 39  1  0  0  0  0
 40 59  1  0  0  0  0
 41 42  1  0  0  0  0
 41 43  1  0  0  0  0
 41 50  1  0  0  0  0
 44 45  1  0  0  0  0
 44 46  1  0  0  0  0
 44 47  1  0  0  0  0
 48 63  1  0  0  0  0
 49 67  1  0  0  0  0
 50 71  1  0  0  0  0
 51 52  1  0  0  0  0
 51 53  1  0  0  0  0
 51 54  1  0  0  0  0
 55 56  1  0  0  0  0
 55 77  1  0  0  0  0
 57 58  1  0  0  0  0
 57 75  2  0  0  0  0
 59 60  1  0  0  0  0
 59 61  1  0  0  0  0
 59 62  1  0  0  0  0
 63 64  1  0  0  0  0
 63 65  1  0  0  0  0
 63 66  1  0  0  0  0
 67 68  1  0  0  0  0
 67 69  1  0  0  0  0
 67 70  1  0  0  0  0
 71 72  1  0  0  0  0
 71 73  1  0  0  0  0
 71 74  1  0  0  0  0
 75 76  1  0  0  0  0
 75 79  1  0  0  0  0
 77 78  1  0  0  0  0
 77 79  2  0  0  0  0
 79 80  1  0  0  0  0
M  CHG  1  11   1
M  END
>  <IDNUMBER>
AA-504/21041038

>  <NAME>
Delphinine

>  <ADD_INFO>
http://www.specs.net/enter.php?specsid=AA-504/21041038

>  <H_ACCEPTORS>
10

>  <H_DONORS>
1

>  <ROTATABLE_BONDS>
10

>  <LOGP>
1.25

>  <LOGS>
-3.6300001

>  <TPSA>
112.99

>  <PRICE>
N07

$$$$
AA-504/21104008
  MOE2011           3D

 35 37  0  0  1  0  0  0  0  0999 V2000
    0.9490   -0.2370    0.7650 C   0  0  1  0  0  0  0  0  0  0  0  0
    1.9990   -1.1710    1.0400 O   0  0  0  0  0  0  0  0  0  0  0  0
    3.1750   -0.6840    0.5520 C   0  0  0  0  0  0  0  0  0  0  0  0
    2.8540    0.4780   -0.3120 C   0  0  0  0  0  0  0  0  0  0  0  0
    1.3700    0.5470   -0.4690 C   0  0  2  0  0  0  0  0  0  0  0  0
   -0.4450   -0.8870    0.6600 C   0  0  1  0  0  0  0  0  0  0  0  0
   -1.4680   -0.0060   -0.1050 C   0  0  2  0  0  0  0  0  0  0  0  0
   -0.6740   -2.2190   -0.0410 C   0  0  0  0  0  0  0  0  0  0  0  0
   -1.6240    1.4020    0.4220 C   0  0  0  0  0  0  0  0  0  0  0  0
    0.7290    1.9490   -0.5940 C   0  0  0  0  0  0  0  0  0  0  0  0
    1.4930    2.7290   -0.4960 H   0  0  0  0  0  0  0  0  0  0  0  0
    0.3380    2.0550   -1.6150 H   0  0  0  0  0  0  0  0  0  0  0  0
   -2.6930   -0.9290   -0.1490 C   0  0  0  0  0  0  0  0  0  0  0  0
   -3.1690   -1.0110    0.8370 H   0  0  0  0  0  0  0  0  0  0  0  0
   -3.4490   -0.5930   -0.8660 H   0  0  0  0  0  0  0  0  0  0  0  0
    4.2800   -1.1460    0.7700 O   0  0  0  0  0  0  0  0  0  0  0  0
   -0.3990    2.3010    0.4000 C   0  0  0  0  0  0  0  0  0  0  0  0
   -0.7180    3.3260    0.1660 H   0  0  0  0  0  0  0  0  0  0  0  0
    0.0200    2.3480    1.4130 H   0  0  0  0  0  0  0  0  0  0  0  0
   -2.0970   -2.2760   -0.5540 C   0  0  0  0  0  0  0  0  0  0  0  0
   -2.1000   -2.3770   -1.6450 H   0  0  0  0  0  0  0  0  0  0  0  0
   -2.6630   -3.1030   -0.1140 H   0  0  0  0  0  0  0  0  0  0  0  0
    3.8110    1.2610   -0.8200 C   0  0  0  0  0  0  0  0  0  0  0  0
    4.8620    1.0730   -0.6130 H   0  0  0  0  0  0  0  0  0  0  0  0
    3.5770    2.1010   -1.4660 H   0  0  0  0  0  0  0  0  0  0  0  0
    0.1900   -3.2190   -0.2550 C   0  0  0  0  0  0  0  0  0  0  0  0
    1.2120   -3.1990    0.1010 H   0  0  0  0  0  0  0  0  0  0  0  0
   -0.1160   -4.1130   -0.7920 H   0  0  0  0  0  0  0  0  0  0  0  0
   -2.7910    1.9020    0.8620 C   0  0  0  0  0  0  0  0  0  0  0  0
   -3.7060    1.3190    0.8850 H   0  0  0  0  0  0  0  0  0  0  0  0
   -2.8660    2.9250    1.2200 H   0  0  0  0  0  0  0  0  0  0  0  0
   -0.7950   -1.0360    1.6930 H   0  0  0  0  0  0  0  0  0  0  0  0
   -1.1560    0.1030   -1.1550 H   0  0  0  0  0  0  0  0  0  0  0  0
    0.9350    0.4180    1.6470 H   0  0  0  0  0  0  0  0  0  0  0  0
    1.1350   -0.0310   -1.3730 H   0  0  0  0  0  0  0  0  0  0  0  0
  1  2  1  0  0  0  0
  1  5  1  0  0  0  0
  1  6  1  0  0  0  0
  1 34  1  0  0  0  0
  2  3  1  0  0  0  0
  3  4  1  0  0  0  0
  3 16  2  0  0  0  0
  4  5  1  0  0  0  0
  4 23  2  0  0  0  0
  5 10  1  0  0  0  0
  5 35  1  0  0  0  0
  6  7  1  0  0  0  0
  6  8  1  0  0  0  0
  6 32  1  0  0  0  0
  7  9  1  0  0  0  0
  7 13  1  0  0  0  0
  7 33  1  0  0  0  0
  8 20  1  0  0  0  0
  8 26  2  0  0  0  0
  9 17  1  0  0  0  0
  9 29  2  0  0  0  0
 10 11  1  0  0  0  0
 10 12  1  0  0  0  0
 10 17  1  0  0  0  0
 13 14  1  0  0  0  0
 13 15  1  0  0  0  0
 13 20  1  0  0  0  0
 17 18  1  0  0  0  0
 17 19  1  0  0  0  0
 20 21  1  0  0  0  0
 20 22  1  0  0  0  0
 23 24  1  0  0  0  0
 23 25  1  0  0  0  0
 26 27  1  0  0  0  0
 26 28  1  0  0  0  0
 29 30  1  0  0  0  0
 29 31  1  0  0  0  0
M  END
>  <IDNUMBER>
AA-504/21104008

>  <NAME>
Dehydrocostus lactone (Epiligulyl oxide)

>  <ADD_INFO>
http://www.specs.net/enter.php?specsid=AA-504/21104008

>  <H_ACCEPTORS>
2

>  <H_DONORS>
0

>  <ROTATABLE_BONDS>
0

>  <LOGP>
3.3099999

>  <LOGS>
-3.71

>  <TPSA>
26.299999

>  <PRICE>
N07

>  <STEREOCHEM>
(1-alpha, 5-beta, 6-alpha)-isomer

$$$$
AA-504/21106013
  MOE2011           3D

 63 65  0  0  1  0  0  0  0  0999 V2000
    0.3920    1.0490   -0.1180 C   0  0  1  0  0  0  0  0  0  0  0  0
    1.1930   -0.1830    0.3800 C   0  0  1  0  0  0  0  0  0  0  0  0
   -1.1570    1.0650    0.2160 C   0  0  2  0  0  0  0  0  0  0  0  0
    0.5300   -1.4480   -0.2530 C   0  0  2  0  0  0  0  0  0  0  0  0
   -1.7850   -0.2660   -0.3810 C   0  0  3  0  0  0  0  0  0  0  0  0
    1.2100    2.2830    0.2670 C   0  0  0  0  0  0  0  0  0  0  0  0
   -0.9940   -1.5550   -0.0030 C   0  0  2  0  0  0  0  0  0  0  0  0
    2.5390   -0.1530   -0.1750 O   0  0  0  0  0  0  0  0  0  0  0  0
    3.3580    1.0260   -0.0780 C   0  0  2  0  0  0  0  0  0  0  0  0
   -3.3640   -0.3810   -0.2520 C   0  0  0  0  0  0  0  0  0  0  0  0
    2.5980    2.3400   -0.3190 C   0  0  0  0  0  0  0  0  0  0  0  0
    2.4750    2.5570   -1.3880 H   0  0  0  0  0  0  0  0  0  0  0  0
    3.1390    3.1940    0.1050 H   0  0  0  0  0  0  0  0  0  0  0  0
    1.1780   -2.6400    0.2740 O   0  0  0  0  0  0  0  0  0  0  0  0
   -1.8610    2.3080   -0.4750 C   0  0  2  0  0  0  0  0  0  0  0  0
    1.2230   -3.7230   -0.5500 C   0  0  0  0  0  0  0  0  0  0  0  0
    0.7850    3.1980    0.9710 O   0  0  0  0  0  0  0  0  0  0  0  0
    0.4930    1.0350   -1.5740 O   0  0  0  0  0  0  0  0  0  0  0  0
   -0.0740    1.7960   -1.8720 H   0  0  0  0  0  0  0  0  0  0  0  0
    4.3340    0.8490   -1.2360 C   0  0  0  0  0  0  0  0  0  0  0  0
    3.8540    0.7230   -2.2080 H   0  0  0  0  0  0  0  0  0  0  0  0
   -4.0420    1.0140   -0.2570 C   0  0  0  0  0  0  0  0  0  0  0  0
   -5.0550    0.9410   -0.6740 H   0  0  0  0  0  0  0  0  0  0  0  0
   -4.1850    1.3870    0.7630 H   0  0  0  0  0  0  0  0  0  0  0  0
    0.6880   -3.8120   -1.6450 O   0  0  0  0  0  0  0  0  0  0  0  0
   -3.2560    2.0370   -1.0480 C   0  0  0  0  0  0  0  0  0  0  0  0
   -3.8120    2.9830   -1.0820 H   0  0  0  0  0  0  0  0  0  0  0  0
   -3.1810    1.7150   -2.0950 H   0  0  0  0  0  0  0  0  0  0  0  0
    1.3440   -0.3240    1.9060 C   0  0  0  0  0  0  0  0  0  0  0  0
    0.5070   -0.8130    2.3970 H   0  0  0  0  0  0  0  0  0  0  0  0
    1.4560    0.6470    2.3940 H   0  0  0  0  0  0  0  0  0  0  0  0
    2.2320   -0.9170    2.1560 H   0  0  0  0  0  0  0  0  0  0  0  0
   -1.2210   -1.9290    1.3530 O   0  0  0  0  0  0  0  0  0  0  0  0
   -0.6470   -2.6970    1.5340 H   0  0  0  0  0  0  0  0  0  0  0  0
   -1.4310    1.1840    1.7360 C   0  0  0  0  0  0  0  0  0  0  0  0
   -2.4600    1.4840    1.9500 H   0  0  0  0  0  0  0  0  0  0  0  0
   -0.8050    1.9430    2.2110 H   0  0  0  0  0  0  0  0  0  0  0  0
   -1.2740    0.2570    2.2810 H   0  0  0  0  0  0  0  0  0  0  0  0
    5.6740    0.8030   -1.2150 C   0  0  0  0  0  0  0  0  0  0  0  0
    6.2290    0.6550   -2.1370 H   0  0  0  0  0  0  0  0  0  0  0  0
    6.2540    0.8960   -0.3040 H   0  0  0  0  0  0  0  0  0  0  0  0
   -1.0830    2.8040   -1.5810 O   0  0  0  0  0  0  0  0  0  0  0  0
   -1.4850    3.6570   -1.8400 H   0  0  0  0  0  0  0  0  0  0  0  0
    4.0830    1.0760    1.2780 C   0  0  0  0  0  0  0  0  0  0  0  0
    4.8730    1.8360    1.2920 H   0  0  0  0  0  0  0  0  0  0  0  0
    4.5250    0.1050    1.5280 H   0  0  0  0  0  0  0  0  0  0  0  0
    3.4080    1.3380    2.0950 H   0  0  0  0  0  0  0  0  0  0  0  0
   -3.8780   -1.1350    0.9910 C   0  0  0  0  0  0  0  0  0  0  0  0
   -4.9720   -1.0850    1.0500 H   0  0  0  0  0  0  0  0  0  0  0  0
   -3.4900   -0.7090    1.9200 H   0  0  0  0  0  0  0  0  0  0  0  0
   -3.6210   -2.1990    0.9610 H   0  0  0  0  0  0  0  0  0  0  0  0
   -3.8870   -1.1730   -1.4820 C   0  0  0  0  0  0  0  0  0  0  0  0
   -4.9790   -1.2740   -1.4540 H   0  0  0  0  0  0  0  0  0  0  0  0
   -3.4700   -2.1840   -1.5170 H   0  0  0  0  0  0  0  0  0  0  0  0
   -3.6300   -0.6720   -2.4220 H   0  0  0  0  0  0  0  0  0  0  0  0
    2.0340   -4.8110    0.0840 C   0  0  0  0  0  0  0  0  0  0  0  0
    1.6470   -5.0320    1.0830 H   0  0  0  0  0  0  0  0  0  0  0  0
    3.0820   -4.5060    0.1360 H   0  0  0  0  0  0  0  0  0  0  0  0
    1.9580   -5.7180   -0.5220 H   0  0  0  0  0  0  0  0  0  0  0  0
    0.7110   -1.4150   -1.3360 H   0  0  0  0  0  0  0  0  0  0  0  0
   -1.6110   -0.1750   -1.4660 H   0  0  0  0  0  0  0  0  0  0  0  0
   -1.3790   -2.3890   -0.6010 H   0  0  0  0  0  0  0  0  0  0  0  0
   -1.9190    3.1330    0.2470 H   0  0  0  0  0  0  0  0  0  0  0  0
  1  2  1  0  0  0  0
  1  3  1  0  0  0  0
  1  6  1  0  0  0  0
  1 18  1  0  0  0  0
  2  4  1  0  0  0  0
  2  8  1  0  0  0  0
  2 29  1  0  0  0  0
  3  5  1  0  0  0  0
  3 15  1  0  0  0  0
  3 35  1  0  0  0  0
  4  7  1  0  0  0  0
  4 14  1  0  0  0  0
  4 60  1  0  0  0  0
  5  7  1  0  0  0  0
  5 10  1  0  0  0  0
  5 61  1  0  0  0  0
  6 11  1  0  0  0  0
  6 17  2  0  0  0  0
  7 33  1  0  0  0  0
  7 62  1  0  0  0  0
  8  9  1  0  0  0  0
  9 11  1  0  0  0  0
  9 20  1  0  0  0  0
  9 44  1  0  0  0  0
 10 22  1  0  0  0  0
 10 48  1  0  0  0  0
 10 52  1  0  0  0  0
 11 12  1  0  0  0  0
 11 13  1  0  0  0  0
 14 16  1  0  0  0  0
 15 26  1  0  0  0  0
 15 42  1  0  0  0  0
 15 63  1  0  0  0  0
 16 25  2  0  0  0  0
 16 56  1  0  0  0  0
 18 19  1  0  0  0  0
 20 21  1  0  0  0  0
 20 39  2  0  0  0  0
 22 23  1  0  0  0  0
 22 24  1  0  0  0  0
 22 26  1  0  0  0  0
 26 27  1  0  0  0  0
 26 28  1  0  0  0  0
 29 30  1  0  0  0  0
 29 31  1  0  0  0  0
 29 32  1  0  0  0  0
 33 34  1  0  0  0  0
 35 36  1  0  0  0  0
 35 37  1  0  0  0  0
 35 38  1  0  0  0  0
 39 40  1  0  0  0  0
 39 41  1  0  0  0  0
 42 43  1  0  0  0  0
 44 45  1  0  0  0  0
 44 46  1  0  0  0  0
 44 47  1  0  0  0  0
 48 49  1  0  0  0  0
 48 50  1  0  0  0  0
 48 51  1  0  0  0  0
 52 53  1  0  0  0  0
 52 54  1  0  0  0  0
 52 55  1  0  0  0  0
 56 57  1  0  0  0  0
 56 58  1  0  0  0  0
 56 59  1  0  0  0  0
M  END
>  <IDNUMBER>
AA-504/21106013

>  <NAME>
Forskolin

>  <ADD_INFO>
http://www.specs.net/enter.php?specsid=AA-504/21106013

>  <H_ACCEPTORS>
7

>  <H_DONORS>
3

>  <ROTATABLE_BONDS>
3

>  <LOGP>
1.83

>  <LOGS>
-3.75

>  <TPSA>
113.29

>  <PRICE>
N07

$$$$
AA-504/21106042
  MOE2011           3D

 36 37  0  0  0  0  0  0  0  0999 V2000
   -0.0010    0.5600    0.1530 C   0  0  0  0  0  0  0  0  0  0  0  0
    0.0580   -0.4660   -0.1860 H   0  0  0  0  0  0  0  0  0  0  0  0
    1.2610    1.3360    0.3100 C   0  0  0  0  0  0  0  0  0  0  0  0
   -1.1760    1.1640    0.3900 C   0  0  0  0  0  0  0  0  0  0  0  0
   -1.1960    2.2100    0.6940 H   0  0  0  0  0  0  0  0  0  0  0  0
    2.5500    0.6020    0.2210 C   0  0  0  0  0  0  0  0  0  0  0  0
    1.2620    2.5520    0.4750 O   0  0  0  0  0  0  0  0  0  0  0  0
    2.6850   -0.7310    0.6210 C   0  0  0  0  0  0  0  0  0  0  0  0
    1.8520   -1.2920    1.0330 H   0  0  0  0  0  0  0  0  0  0  0  0
    3.6730    1.2950   -0.2500 C   0  0  0  0  0  0  0  0  0  0  0  0
    3.5880    2.3380   -0.5470 H   0  0  0  0  0  0  0  0  0  0  0  0
   -2.4940    0.5250    0.2430 C   0  0  0  0  0  0  0  0  0  0  0  0
    5.0460   -0.6800    0.0320 C   0  0  0  0  0  0  0  0  0  0  0  0
   -5.0800   -0.5870    0.0070 C   0  0  0  0  0  0  0  0  0  0  0  0
    3.9280   -1.3640    0.5200 C   0  0  0  0  0  0  0  0  0  0  0  0
    4.0290   -2.4010    0.8320 H   0  0  0  0  0  0  0  0  0  0  0  0
    4.9140    0.6560   -0.3500 C   0  0  0  0  0  0  0  0  0  0  0  0
    5.7550    1.2300   -0.7250 H   0  0  0  0  0  0  0  0  0  0  0  0
   -2.7130   -0.8320    0.5050 C   0  0  0  0  0  0  0  0  0  0  0  0
   -1.9000   -1.4810    0.8220 H   0  0  0  0  0  0  0  0  0  0  0  0
   -3.5900    1.3190   -0.1190 C   0  0  0  0  0  0  0  0  0  0  0  0
   -3.4580    2.3820   -0.3170 H   0  0  0  0  0  0  0  0  0  0  0  0
   -3.9940   -1.3810    0.3820 C   0  0  0  0  0  0  0  0  0  0  0  0
   -4.1470   -2.4380    0.5880 H   0  0  0  0  0  0  0  0  0  0  0  0
   -4.8730    0.7690   -0.2420 C   0  0  0  0  0  0  0  0  0  0  0  0
   -5.6840    1.4290   -0.5320 H   0  0  0  0  0  0  0  0  0  0  0  0
    6.1950   -1.4220   -0.0160 O   0  0  0  0  0  0  0  0  0  0  0  0
   -6.2750   -1.2480   -0.0740 O   0  0  0  0  0  0  0  0  0  0  0  0
    7.3580   -0.7780   -0.5220 C   0  0  0  0  0  0  0  0  0  0  0  0
    8.1770   -1.5040   -0.5000 H   0  0  0  0  0  0  0  0  0  0  0  0
    7.6460    0.0680    0.1090 H   0  0  0  0  0  0  0  0  0  0  0  0
    7.2150   -0.4660   -1.5620 H   0  0  0  0  0  0  0  0  0  0  0  0
   -7.4150   -0.4760   -0.4300 C   0  0  0  0  0  0  0  0  0  0  0  0
   -8.2810   -1.1450   -0.4460 H   0  0  0  0  0  0  0  0  0  0  0  0
   -7.3050   -0.0490   -1.4330 H   0  0  0  0  0  0  0  0  0  0  0  0
   -7.6110    0.3050    0.3130 H   0  0  0  0  0  0  0  0  0  0  0  0
  1  2  1  0  0  0  0
  1  3  1  0  0  0  0
  1  4  2  0  0  0  0
  3  6  1  0  0  0  0
  3  7  2  0  0  0  0
  4  5  1  0  0  0  0
  4 12  1  0  0  0  0
  6  8  2  0  0  0  0
  6 10  1  0  0  0  0
  8  9  1  0  0  0  0
  8 15  1  0  0  0  0
 10 11  1  0  0  0  0
 10 17  2  0  0  0  0
 12 19  2  0  0  0  0
 12 21  1  0  0  0  0
 13 15  2  0  0  0  0
 13 17  1  0  0  0  0
 13 27  1  0  0  0  0
 14 23  2  0  0  0  0
 14 25  1  0  0  0  0
 14 28  1  0  0  0  0
 15 16  1  0  0  0  0
 17 18  1  0  0  0  0
 19 20  1  0  0  0  0
 19 23  1  0  0  0  0
 21 22  1  0  0  0  0
 21 25  2  0  0  0  0
 23 24  1  0  0  0  0
 25 26  1  0  0  0  0
 27 29  1  0  0  0  0
 28 33  1  0  0  0  0
 29 30  1  0  0  0  0
 29 31  1  0  0  0  0
 29 32  1  0  0  0  0
 33 34  1  0  0  0  0
 33 35  1  0  0  0  0
 33 36  1  0  0  0  0
M  END
>  <IDNUMBER>
AA-504/21106042

>  <NAME>
4,4'-Dimethoxychalcone

>  <ADD_INFO>
http://www.specs.net/enter.php?specsid=AA-504/21106042

>  <H_ACCEPTORS>
1

>  <H_DONORS>
0

>  <ROTATABLE_BONDS>
5

>  <LOGP>
3.8199999

>  <LOGS>
-4.4200001

>  <TPSA>
35.529999

>  <PRICE>
N07

$$$$
AA-504/21114056
  MOE2011           3D

 25 26  0  0  0  0  0  0  0  0999 V2000
    1.3120    0.6260   -0.0010 C   0  0  0  0  0  0  0  0  0  0  0  0
    2.5840    1.2330   -0.0060 O   0  0  0  0  0  0  0  0  0  0  0  0
    0.2030    1.4690   -0.0050 C   0  0  0  0  0  0  0  0  0  0  0  0
    0.3710    2.5400   -0.0110 H   0  0  0  0  0  0  0  0  0  0  0  0
    1.1820   -0.7590    0.0070 C   0  0  0  0  0  0  0  0  0  0  0  0
    3.7470    0.4730   -0.0040 C   0  0  0  0  0  0  0  0  0  0  0  0
    2.3840   -1.5770    0.0120 C   0  0  0  0  0  0  0  0  0  0  0  0
    2.2890   -2.6580    0.0200 H   0  0  0  0  0  0  0  0  0  0  0  0
   -1.0790    0.9140   -0.0010 C   0  0  0  0  0  0  0  0  0  0  0  0
   -1.2320   -0.4910    0.0040 C   0  0  0  0  0  0  0  0  0  0  0  0
    3.5850   -0.9920    0.0070 C   0  0  0  0  0  0  0  0  0  0  0  0
    4.4990   -1.5730    0.0100 H   0  0  0  0  0  0  0  0  0  0  0  0
   -0.0980   -1.3180    0.0090 C   0  0  0  0  0  0  0  0  0  0  0  0
   -0.1920   -2.3990    0.0160 H   0  0  0  0  0  0  0  0  0  0  0  0
    4.8620    0.9810   -0.0100 O   0  0  0  0  0  0  0  0  0  0  0  0
   -2.2410    1.6470   -0.0040 O   0  0  0  0  0  0  0  0  0  0  0  0
   -2.5260   -0.9540    0.0050 O   0  0  0  0  0  0  0  0  0  0  0  0
   -2.7250   -2.3600   -0.0210 C   0  0  0  0  0  0  0  0  0  0  0  0
   -3.8040   -2.5440   -0.0310 H   0  0  0  0  0  0  0  0  0  0  0  0
   -2.3170   -2.8330    0.8780 H   0  0  0  0  0  0  0  0  0  0  0  0
   -2.3040   -2.8030   -0.9290 H   0  0  0  0  0  0  0  0  0  0  0  0
   -2.1260    3.0630    0.0110 C   0  0  0  0  0  0  0  0  0  0  0  0
   -3.1370    3.4810    0.0160 H   0  0  0  0  0  0  0  0  0  0  0  0
   -1.6200    3.4280   -0.8890 H   0  0  0  0  0  0  0  0  0  0  0  0
   -1.6190    3.4090    0.9190 H   0  0  0  0  0  0  0  0  0  0  0  0
  1  2  1  0  0  0  0
  1  3  2  0  0  0  0
  1  5  1  0  0  0  0
  2  6  1  0  0  0  0
  3  4  1  0  0  0  0
  3  9  1  0  0  0  0
  5  7  1  0  0  0  0
  5 13  2  0  0  0  0
  6 11  1  0  0  0  0
  6 15  2  0  0  0  0
  7  8  1  0  0  0  0
  7 11  2  0  0  0  0
  9 10  2  0  0  0  0
  9 16  1  0  0  0  0
 10 13  1  0  0  0  0
 10 17  1  0  0  0  0
 11 12  1  0  0  0  0
 13 14  1  0  0  0  0
 16 22  1  0  0  0  0
 17 18  1  0  0  0  0
 18 19  1  0  0  0  0
 18 20  1  0  0  0  0
 18 21  1  0  0  0  0
 22 23  1  0  0  0  0
 22 24  1  0  0  0  0
 22 25  1  0  0  0  0
M  END
>  <IDNUMBER>
AA-504/21114056

>  <NAME>
Scoparone  (Escoparone, Scoparin)

>  <ADD_INFO>
http://www.specs.net/enter.php?specsid=AA-504/21114056

>  <H_ACCEPTORS>
1

>  <H_DONORS>
0

>  <ROTATABLE_BONDS>
2

>  <LOGP>
1.16

>  <LOGS>
-1.6900001

>  <TPSA>
44.759998

>  <PRICE>
N07

$$$$
AA-504/21163045
  MOE2011           3D

 44 47  0  0  1  0  0  0  0  0999 V2000
   -0.2790    0.8500   -0.9180 C   0  0  1  0  0  0  0  0  0  0  0  0
   -0.3570    2.3690   -0.8820 C   0  0  1  0  0  0  0  0  0  0  0  0
   -1.7130    3.0230   -0.6950 C   0  0  1  0  0  0  0  0  0  0  0  0
   -2.8580    2.1790   -0.1820 C   0  0  2  0  0  0  0  0  0  0  0  0
    0.1650    1.6040    0.2180 O   0  0  0  0  0  0  0  0  0  0  0  0
   -2.2050    3.1550    0.6430 O   0  0  0  0  0  0  0  0  0  0  0  0
   -1.5560    0.0570   -0.6990 C   0  0  2  0  0  0  0  0  0  0  0  0
   -2.5920    0.7530    0.2250 C   0  0  2  0  0  0  0  0  0  0  0  0
    0.7900    0.2230   -1.7720 C   0  0  0  0  0  0  0  0  0  0  0  0
    0.7730    0.6880   -2.7640 H   0  0  0  0  0  0  0  0  0  0  0  0
    0.6150   -0.8450   -1.9410 H   0  0  0  0  0  0  0  0  0  0  0  0
   -1.1850   -1.1940   -0.0730 O   0  0  0  0  0  0  0  0  0  0  0  0
   -3.8300    0.0100    0.1190 O   0  0  0  0  0  0  0  0  0  0  0  0
    2.5900   -0.5280   -0.4290 C   0  0  0  0  0  0  0  0  0  0  0  0
    2.1010    0.4520   -1.2290 O   0  0  0  0  0  0  0  0  0  0  0  0
   -1.7640   -2.3290   -0.5470 C   0  0  0  0  0  0  0  0  0  0  0  0
   -4.6110   -0.0410    1.2310 C   0  0  0  0  0  0  0  0  0  0  0  0
    2.0470   -1.5910   -0.1720 O   0  0  0  0  0  0  0  0  0  0  0  0
    3.9270   -0.1480    0.0980 C   0  0  0  0  0  0  0  0  0  0  0  0
   -2.5700   -2.3960   -1.4640 O   0  0  0  0  0  0  0  0  0  0  0  0
   -4.3740    0.5000    2.3010 O   0  0  0  0  0  0  0  0  0  0  0  0
   -5.8280   -0.8710    0.9570 C   0  0  0  0  0  0  0  0  0  0  0  0
   -5.5310   -1.8890    0.6960 H   0  0  0  0  0  0  0  0  0  0  0  0
   -6.4100   -0.4190    0.1490 H   0  0  0  0  0  0  0  0  0  0  0  0
   -6.4500   -0.9090    1.8560 H   0  0  0  0  0  0  0  0  0  0  0  0
   -1.2610   -3.5120    0.2230 C   0  0  0  0  0  0  0  0  0  0  0  0
   -1.4880   -3.3880    1.2840 H   0  0  0  0  0  0  0  0  0  0  0  0
   -0.1840   -3.6220    0.0690 H   0  0  0  0  0  0  0  0  0  0  0  0
   -1.7610   -4.4160   -0.1360 H   0  0  0  0  0  0  0  0  0  0  0  0
    4.4760    1.1270   -0.0980 C   0  0  0  0  0  0  0  0  0  0  0  0
    3.9340    1.8940   -0.6440 H   0  0  0  0  0  0  0  0  0  0  0  0
    4.6520   -1.1080    0.8190 C   0  0  0  0  0  0  0  0  0  0  0  0
    4.2390   -2.1010    0.9840 H   0  0  0  0  0  0  0  0  0  0  0  0
    5.7380    1.4320    0.4180 C   0  0  0  0  0  0  0  0  0  0  0  0
    6.1640    2.4210    0.2660 H   0  0  0  0  0  0  0  0  0  0  0  0
    5.9130   -0.7980    1.3310 C   0  0  0  0  0  0  0  0  0  0  0  0
    6.4750   -1.5450    1.8870 H   0  0  0  0  0  0  0  0  0  0  0  0
    6.4540    0.4700    1.1300 C   0  0  0  0  0  0  0  0  0  0  0  0
    7.4350    0.7110    1.5300 H   0  0  0  0  0  0  0  0  0  0  0  0
    0.3720    2.9370   -1.4510 H   0  0  0  0  0  0  0  0  0  0  0  0
   -1.9620    3.8190   -1.3880 H   0  0  0  0  0  0  0  0  0  0  0  0
   -3.8610    2.3870   -0.5260 H   0  0  0  0  0  0  0  0  0  0  0  0
   -2.0060   -0.1200   -1.6840 H   0  0  0  0  0  0  0  0  0  0  0  0
   -2.2240    0.7080    1.2590 H   0  0  0  0  0  0  0  0  0  0  0  0
  1  2  1  0  0  0  0
  1  5  1  0  0  0  0
  1  7  1  0  0  0  0
  1  9  1  0  0  0  0
  2  3  1  0  0  0  0
  2  5  1  0  0  0  0
  2 40  1  0  0  0  0
  3  4  1  0  0  0  0
  3  6  1  0  0  0  0
  3 41  1  0  0  0  0
  4  6  1  0  0  0  0
  4  8  1  0  0  0  0
  4 42  1  0  0  0  0
  7  8  1  0  0  0  0
  7 12  1  0  0  0  0
  7 43  1  0  0  0  0
  8 13  1  0  0  0  0
  8 44  1  0  0  0  0
  9 10  1  0  0  0  0
  9 11  1  0  0  0  0
  9 15  1  0  0  0  0
 12 16  1  0  0  0  0
 13 17  1  0  0  0  0
 14 15  1  0  0  0  0
 14 18  2  0  0  0  0
 14 19  1  0  0  0  0
 16 20  2  0  0  0  0
 16 26  1  0  0  0  0
 17 21  2  0  0  0  0
 17 22  1  0  0  0  0
 19 30  2  0  0  0  0
 19 32  1  0  0  0  0
 22 23  1  0  0  0  0
 22 24  1  0  0  0  0
 22 25  1  0  0  0  0
 26 27  1  0  0  0  0
 26 28  1  0  0  0  0
 26 29  1  0  0  0  0
 30 31  1  0  0  0  0
 30 34  1  0  0  0  0
 32 33  1  0  0  0  0
 32 36  2  0  0  0  0
 34 35  1  0  0  0  0
 34 38  2  0  0  0  0
 36 37  1  0  0  0  0
 36 38  1  0  0  0  0
 38 39  1  0  0  0  0
M  END
>  <IDNUMBER>
AA-504/21163045

>  <NAME>
Crotepoxide (Futoxide)

>  <ADD_INFO>
http://www.specs.net/enter.php?specsid=AA-504/21163045

>  <H_ACCEPTORS>
8

>  <H_DONORS>
0

>  <ROTATABLE_BONDS>
8

>  <LOGP>
0.52999997

>  <LOGS>
-2.29

>  <TPSA>
103.96

>  <PRICE>
N07

$$$$
AA-504/21163099
  MOE2011           3D

 54 55  0  0  0  0  0  0  0  0999 V2000
   -0.4670   -0.8910   -0.4360 C   0  0  0  0  0  0  0  0  0  0  0  0
   -1.6260   -1.3100    0.2440 C   0  0  0  0  0  0  0  0  0  0  0  0
   -2.6120   -0.3960    0.6450 C   0  0  0  0  0  0  0  0  0  0  0  0
   -0.3290    0.4540   -0.8080 C   0  0  0  0  0  0  0  0  0  0  0  0
   -2.4490    0.9600    0.3010 C   0  0  0  0  0  0  0  0  0  0  0  0
   -1.3220    1.3690   -0.4290 C   0  0  0  0  0  0  0  0  0  0  0  0
   -1.2260    2.4080   -0.7190 H   0  0  0  0  0  0  0  0  0  0  0  0
    0.5350   -1.9350   -0.7590 C   0  0  0  0  0  0  0  0  0  0  0  0
   -3.8480   -0.8730    1.3840 C   0  0  0  0  0  0  0  0  0  0  0  0
   -3.5830   -1.7130    2.0390 H   0  0  0  0  0  0  0  0  0  0  0  0
   -4.1890   -0.1020    2.0810 H   0  0  0  0  0  0  0  0  0  0  0  0
    1.9980   -1.6890   -0.6890 C   0  0  0  0  0  0  0  0  0  0  0  0
    2.5890   -2.3010   -1.3620 H   0  0  0  0  0  0  0  0  0  0  0  0
   -4.9360   -1.3290    0.4470 C   0  0  0  0  0  0  0  0  0  0  0  0
   -4.6820   -2.2360   -0.1020 H   0  0  0  0  0  0  0  0  0  0  0  0
    2.5620   -0.8680    0.2100 C   0  0  0  0  0  0  0  0  0  0  0  0
    1.9540   -0.3300    0.9330 H   0  0  0  0  0  0  0  0  0  0  0  0
   -6.1450   -0.7750    0.2320 C   0  0  0  0  0  0  0  0  0  0  0  0
    0.1170   -3.0680   -1.0100 O   0  0  0  0  0  0  0  0  0  0  0  0
   -1.8310   -2.6440    0.5210 O   0  0  0  0  0  0  0  0  0  0  0  0
   -1.2020   -3.1630   -0.0380 H   0  0  0  0  0  0  0  0  0  0  0  0
    4.0110   -0.6410    0.3250 C   0  0  0  0  0  0  0  0  0  0  0  0
    0.7550    0.7790   -1.5800 O   0  0  0  0  0  0  0  0  0  0  0  0
   -3.4510    1.8040    0.7110 O   0  0  0  0  0  0  0  0  0  0  0  0
    6.7670   -0.1020    0.6250 C   0  0  0  0  0  0  0  0  0  0  0  0
    4.5610   -0.4220    1.5930 C   0  0  0  0  0  0  0  0  0  0  0  0
    3.9370   -0.4570    2.4830 H   0  0  0  0  0  0  0  0  0  0  0  0
    4.8540   -0.5690   -0.7910 C   0  0  0  0  0  0  0  0  0  0  0  0
    4.4570   -0.7020   -1.7950 H   0  0  0  0  0  0  0  0  0  0  0  0
    5.9280   -0.1610    1.7400 C   0  0  0  0  0  0  0  0  0  0  0  0
    6.3390    0.0000    2.7330 H   0  0  0  0  0  0  0  0  0  0  0  0
    6.2230   -0.3070   -0.6430 C   0  0  0  0  0  0  0  0  0  0  0  0
    6.8320   -0.2620   -1.5400 H   0  0  0  0  0  0  0  0  0  0  0  0
    8.0780    0.1660    0.9080 O   0  0  0  0  0  0  0  0  0  0  0  0
   -7.1040   -1.3950   -0.7510 C   0  0  0  0  0  0  0  0  0  0  0  0
   -7.3450   -0.6820   -1.5460 H   0  0  0  0  0  0  0  0  0  0  0  0
   -8.0330   -1.6790   -0.2450 H   0  0  0  0  0  0  0  0  0  0  0  0
   -6.6950   -2.2940   -1.2240 H   0  0  0  0  0  0  0  0  0  0  0  0
   -6.6630    0.4690    0.8970 C   0  0  0  0  0  0  0  0  0  0  0  0
   -7.5960    0.2500    1.4270 H   0  0  0  0  0  0  0  0  0  0  0  0
   -6.8670    1.2380    0.1450 H   0  0  0  0  0  0  0  0  0  0  0  0
   -5.9730    0.8990    1.6240 H   0  0  0  0  0  0  0  0  0  0  0  0
    1.0380    2.1580   -1.7860 C   0  0  0  0  0  0  0  0  0  0  0  0
    2.0000    2.2260   -2.3050 H   0  0  0  0  0  0  0  0  0  0  0  0
    1.1350    2.6920   -0.8350 H   0  0  0  0  0  0  0  0  0  0  0  0
    0.2810    2.6200   -2.4270 H   0  0  0  0  0  0  0  0  0  0  0  0
   -3.3600    3.1760    0.3530 C   0  0  0  0  0  0  0  0  0  0  0  0
   -4.2400    3.6850    0.7570 H   0  0  0  0  0  0  0  0  0  0  0  0
   -3.3740    3.3010   -0.7350 H   0  0  0  0  0  0  0  0  0  0  0  0
   -2.4730    3.6410    0.7960 H   0  0  0  0  0  0  0  0  0  0  0  0
    8.9730    0.2330   -0.1960 C   0  0  0  0  0  0  0  0  0  0  0  0
    9.9720    0.4470    0.1970 H   0  0  0  0  0  0  0  0  0  0  0  0
    8.7010    1.0470   -0.8750 H   0  0  0  0  0  0  0  0  0  0  0  0
    9.0210   -0.7250   -0.7240 H   0  0  0  0  0  0  0  0  0  0  0  0
  1  2  2  0  0  0  0
  1  4  1  0  0  0  0
  1  8  1  0  0  0  0
  2  3  1  0  0  0  0
  2 20  1  0  0  0  0
  3  5  2  0  0  0  0
  3  9  1  0  0  0  0
  4  6  2  0  0  0  0
  4 23  1  0  0  0  0
  5  6  1  0  0  0  0
  5 24  1  0  0  0  0
  6  7  1  0  0  0  0
  8 12  1  0  0  0  0
  8 19  2  0  0  0  0
  9 10  1  0  0  0  0
  9 11  1  0  0  0  0
  9 14  1  0  0  0  0
 12 13  1  0  0  0  0
 12 16  2  0  0  0  0
 14 15  1  0  0  0  0
 14 18  2  0  0  0  0
 16 17  1  0  0  0  0
 16 22  1  0  0  0  0
 18 35  1  0  0  0  0
 18 39  1  0  0  0  0
 20 21  1  0  0  0  0
 22 26  2  0  0  0  0
 22 28  1  0  0  0  0
 23 43  1  0  0  0  0
 24 47  1  0  0  0  0
 25 30  2  0  0  0  0
 25 32  1  0  0  0  0
 25 34  1  0  0  0  0
 26 27  1  0  0  0  0
 26 30  1  0  0  0  0
 28 29  1  0  0  0  0
 28 32  2  0  0  0  0
 30 31  1  0  0  0  0
 32 33  1  0  0  0  0
 34 51  1  0  0  0  0
 35 36  1  0  0  0  0
 35 37  1  0  0  0  0
 35 38  1  0  0  0  0
 39 40  1  0  0  0  0
 39 41  1  0  0  0  0
 39 42  1  0  0  0  0
 43 44  1  0  0  0  0
 43 45  1  0  0  0  0
 43 46  1  0  0  0  0
 47 48  1  0  0  0  0
 47 49  1  0  0  0  0
 47 50  1  0  0  0  0
 51 52  1  0  0  0  0
 51 53  1  0  0  0  0
 51 54  1  0  0  0  0
M  END
>  <IDNUMBER>
AA-504/21163099

>  <NAME>
1-[2-hydroxy-4,6-dimethoxy-3-(3-methyl-2-butenyl)phenyl]-3-(4-methoxyphenyl)-2-propen-1-one

>  <ADD_INFO>
http://www.specs.net/enter.php?specsid=AA-504/21163099

>  <H_ACCEPTORS>
1

>  <H_DONORS>
1

>  <ROTATABLE_BONDS>
8

>  <LOGP>
6.5500002

>  <LOGS>
-7

>  <TPSA>
64.989998

>  <PRICE>
N04

$$$$
AA-504/21163105
  MOE2011           3D

 62 63  0  0  0  0  0  0  0  0999 V2000
   -1.1520   -0.2230   -0.2240 C   0  0  0  0  0  0  0  0  0  0  0  0
   -2.2690   -1.0300    0.0710 C   0  0  0  0  0  0  0  0  0  0  0  0
   -3.4530   -0.4880    0.5920 C   0  0  0  0  0  0  0  0  0  0  0  0
   -1.2470    1.1690   -0.0710 C   0  0  0  0  0  0  0  0  0  0  0  0
    3.8700   -0.5730   -0.4650 C   0  0  0  0  0  0  0  0  0  0  0  0
    2.5050   -0.9960   -0.8380 C   0  0  0  0  0  0  0  0  0  0  0  0
    2.4380   -1.8380   -1.5230 H   0  0  0  0  0  0  0  0  0  0  0  0
   -3.5310    0.9050    0.7680 C   0  0  0  0  0  0  0  0  0  0  0  0
   -2.4360    1.7170    0.4360 C   0  0  0  0  0  0  0  0  0  0  0  0
   -2.5130    2.7890    0.5710 H   0  0  0  0  0  0  0  0  0  0  0  0
    4.7520   -1.5290    0.0890 C   0  0  0  0  0  0  0  0  0  0  0  0
    4.3160    0.7510   -0.6710 C   0  0  0  0  0  0  0  0  0  0  0  0
    0.0660   -0.9240   -0.7050 C   0  0  0  0  0  0  0  0  0  0  0  0
    1.4080   -0.4210   -0.3250 C   0  0  0  0  0  0  0  0  0  0  0  0
    1.4810    0.3930    0.3870 H   0  0  0  0  0  0  0  0  0  0  0  0
   -4.6330   -1.3860    0.9060 C   0  0  0  0  0  0  0  0  0  0  0  0
   -4.2700   -2.3520    1.2800 H   0  0  0  0  0  0  0  0  0  0  0  0
   -5.1980   -0.9810    1.7510 H   0  0  0  0  0  0  0  0  0  0  0  0
    6.0530   -1.1530    0.4500 C   0  0  0  0  0  0  0  0  0  0  0  0
    6.7270   -1.8830    0.8780 H   0  0  0  0  0  0  0  0  0  0  0  0
    5.6160    1.1030   -0.3000 C   0  0  0  0  0  0  0  0  0  0  0  0
    5.9940    2.1120   -0.4340 H   0  0  0  0  0  0  0  0  0  0  0  0
   -5.4980   -1.6400   -0.3000 C   0  0  0  0  0  0  0  0  0  0  0  0
   -4.9980   -2.2220   -1.0750 H   0  0  0  0  0  0  0  0  0  0  0  0
    6.4830    0.1610    0.2620 C   0  0  0  0  0  0  0  0  0  0  0  0
   -6.7720   -1.2570   -0.5160 C   0  0  0  0  0  0  0  0  0  0  0  0
   -0.0910   -1.9840   -1.3170 O   0  0  0  0  0  0  0  0  0  0  0  0
   -2.2330   -2.3900   -0.1570 O   0  0  0  0  0  0  0  0  0  0  0  0
   -1.4340   -2.5760   -0.7120 H   0  0  0  0  0  0  0  0  0  0  0  0
   -0.1740    1.9200   -0.4700 O   0  0  0  0  0  0  0  0  0  0  0  0
   -4.7160    1.3780    1.2710 O   0  0  0  0  0  0  0  0  0  0  0  0
    3.4180    1.6190   -1.2430 O   0  0  0  0  0  0  0  0  0  0  0  0
    4.2430   -2.7970    0.2470 O   0  0  0  0  0  0  0  0  0  0  0  0
    7.7210    0.6550    0.5800 O   0  0  0  0  0  0  0  0  0  0  0  0
   -7.6120   -0.4530    0.4350 C   0  0  0  0  0  0  0  0  0  0  0  0
   -8.5170   -1.0100    0.7000 H   0  0  0  0  0  0  0  0  0  0  0  0
   -7.9140    0.4890   -0.0350 H   0  0  0  0  0  0  0  0  0  0  0  0
   -7.1030   -0.2010    1.3670 H   0  0  0  0  0  0  0  0  0  0  0  0
   -7.4700   -1.6220   -1.8000 C   0  0  0  0  0  0  0  0  0  0  0  0
   -7.7790   -0.7180   -2.3340 H   0  0  0  0  0  0  0  0  0  0  0  0
   -8.3610   -2.2230   -1.5880 H   0  0  0  0  0  0  0  0  0  0  0  0
   -6.8310   -2.2030   -2.4720 H   0  0  0  0  0  0  0  0  0  0  0  0
   -0.2450    3.3340   -0.3290 C   0  0  0  0  0  0  0  0  0  0  0  0
    0.7000    3.7520   -0.6890 H   0  0  0  0  0  0  0  0  0  0  0  0
   -0.3560    3.6200    0.7210 H   0  0  0  0  0  0  0  0  0  0  0  0
   -1.0490    3.7510   -0.9440 H   0  0  0  0  0  0  0  0  0  0  0  0
    5.0890   -3.7890    0.8130 C   0  0  0  0  0  0  0  0  0  0  0  0
    4.5210   -4.7230    0.8620 H   0  0  0  0  0  0  0  0  0  0  0  0
    5.3790   -3.5230    1.8350 H   0  0  0  0  0  0  0  0  0  0  0  0
    5.9660   -3.9660    0.1830 H   0  0  0  0  0  0  0  0  0  0  0  0
    3.8550    2.9440   -1.5130 C   0  0  0  0  0  0  0  0  0  0  0  0
    3.0280    3.4780   -1.9890 H   0  0  0  0  0  0  0  0  0  0  0  0
    4.6980    2.9480   -2.2110 H   0  0  0  0  0  0  0  0  0  0  0  0
    4.1030    3.4730   -0.5870 H   0  0  0  0  0  0  0  0  0  0  0  0
   -4.9220    2.7840    1.2820 C   0  0  0  0  0  0  0  0  0  0  0  0
   -5.9460    2.9690    1.6220 H   0  0  0  0  0  0  0  0  0  0  0  0
   -4.8250    3.2090    0.2780 H   0  0  0  0  0  0  0  0  0  0  0  0
   -4.2440    3.2740    1.9890 H   0  0  0  0  0  0  0  0  0  0  0  0
    8.6430   -0.2450    1.1820 C   0  0  0  0  0  0  0  0  0  0  0  0
    9.5660    0.3070    1.3830 H   0  0  0  0  0  0  0  0  0  0  0  0
    8.8890   -1.0690    0.5050 H   0  0  0  0  0  0  0  0  0  0  0  0
    8.2630   -0.6170    2.1400 H   0  0  0  0  0  0  0  0  0  0  0  0
  1  2  2  0  0  0  0
  1  4  1  0  0  0  0
  1 13  1  0  0  0  0
  2  3  1  0  0  0  0
  2 28  1  0  0  0  0
  3  8  2  0  0  0  0
  3 16  1  0  0  0  0
  4  9  2  0  0  0  0
  4 30  1  0  0  0  0
  5  6  1  0  0  0  0
  5 11  2  0  0  0  0
  5 12  1  0  0  0  0
  6  7  1  0  0  0  0
  6 14  2  0  0  0  0
  8  9  1  0  0  0  0
  8 31  1  0  0  0  0
  9 10  1  0  0  0  0
 11 19  1  0  0  0  0
 11 33  1  0  0  0  0
 12 21  2  0  0  0  0
 12 32  1  0  0  0  0
 13 14  1  0  0  0  0
 13 27  2  0  0  0  0
 14 15  1  0  0  0  0
 16 17  1  0  0  0  0
 16 18  1  0  0  0  0
 16 23  1  0  0  0  0
 19 20  1  0  0  0  0
 19 25  2  0  0  0  0
 21 22  1  0  0  0  0
 21 25  1  0  0  0  0
 23 24  1  0  0  0  0
 23 26  2  0  0  0  0
 25 34  1  0  0  0  0
 26 35  1  0  0  0  0
 26 39  1  0  0  0  0
 28 29  1  0  0  0  0
 30 43  1  0  0  0  0
 31 55  1  0  0  0  0
 32 51  1  0  0  0  0
 33 47  1  0  0  0  0
 34 59  1  0  0  0  0
 35 36  1  0  0  0  0
 35 37  1  0  0  0  0
 35 38  1  0  0  0  0
 39 40  1  0  0  0  0
 39 41  1  0  0  0  0
 39 42  1  0  0  0  0
 43 44  1  0  0  0  0
 43 45  1  0  0  0  0
 43 46  1  0  0  0  0
 47 48  1  0  0  0  0
 47 49  1  0  0  0  0
 47 50  1  0  0  0  0
 51 52  1  0  0  0  0
 51 53  1  0  0  0  0
 51 54  1  0  0  0  0
 55 56  1  0  0  0  0
 55 57  1  0  0  0  0
 55 58  1  0  0  0  0
 59 60  1  0  0  0  0
 59 61  1  0  0  0  0
 59 62  1  0  0  0  0
M  END
>  <IDNUMBER>
AA-504/21163105

>  <NAME>
1-[2-hydroxy-4,6-dimethoxy-3-(3-methyl-2-butenyl)phenyl]-3-(2,4,6-trimethoxyphenyl)-2-propen-1-one

>  <ADD_INFO>
http://www.specs.net/enter.php?specsid=AA-504/21163105

>  <H_ACCEPTORS>
1

>  <H_DONORS>
1

>  <ROTATABLE_BONDS>
10

>  <LOGP>
6.71

>  <LOGS>
-7.5799999

>  <TPSA>
83.449997

>  <PRICE>
N06

$$$$
AA-504/21163112
  MOE2011           3D

 41 42  0  0  0  0  0  0  0  0999 V2000
    4.2590   -0.2860    0.2210 C   0  0  0  0  0  0  0  0  0  0  0  0
   -3.4440    0.2940    0.2920 C   0  0  0  0  0  0  0  0  0  0  0  0
   -2.4770    1.0580    0.9650 C   0  0  0  0  0  0  0  0  0  0  0  0
   -3.0850   -0.9480   -0.2750 C   0  0  0  0  0  0  0  0  0  0  0  0
    3.0180   -1.0270    0.5740 C   0  0  0  0  0  0  0  0  0  0  0  0
    1.6880   -0.3790    0.4430 C   0  0  0  0  0  0  0  0  0  0  0  0
    1.6250    0.6850    0.2660 H   0  0  0  0  0  0  0  0  0  0  0  0
    0.5870   -1.1380    0.5620 C   0  0  0  0  0  0  0  0  0  0  0  0
    0.6700   -2.2110    0.7250 H   0  0  0  0  0  0  0  0  0  0  0  0
    5.4910   -0.8490    0.6040 C   0  0  0  0  0  0  0  0  0  0  0  0
   -0.7820   -0.6140    0.4590 C   0  0  0  0  0  0  0  0  0  0  0  0
    4.2610    0.9190   -0.4910 C   0  0  0  0  0  0  0  0  0  0  0  0
    3.3440    1.3790   -0.8440 H   0  0  0  0  0  0  0  0  0  0  0  0
   -1.7540   -1.3830   -0.1940 C   0  0  0  0  0  0  0  0  0  0  0  0
   -1.4510   -2.3320   -0.6260 H   0  0  0  0  0  0  0  0  0  0  0  0
   -1.1600    0.5910    1.0560 C   0  0  0  0  0  0  0  0  0  0  0  0
   -0.4370    1.1840    1.6120 H   0  0  0  0  0  0  0  0  0  0  0  0
    3.1420   -2.1750    1.0080 O   0  0  0  0  0  0  0  0  0  0  0  0
    6.6970   -0.2130    0.3160 C   0  0  0  0  0  0  0  0  0  0  0  0
    7.6360   -0.6630    0.6260 H   0  0  0  0  0  0  0  0  0  0  0  0
    5.4750    1.5500   -0.7810 C   0  0  0  0  0  0  0  0  0  0  0  0
   -4.7480    0.7310    0.3120 O   0  0  0  0  0  0  0  0  0  0  0  0
   -2.6820    2.2430    1.6240 O   0  0  0  0  0  0  0  0  0  0  0  0
   -4.0920   -1.6800   -0.8500 O   0  0  0  0  0  0  0  0  0  0  0  0
    6.6890    0.9940   -0.3780 C   0  0  0  0  0  0  0  0  0  0  0  0
    7.6290    1.4900   -0.6070 H   0  0  0  0  0  0  0  0  0  0  0  0
    5.5710   -2.0460    1.2710 O   0  0  0  0  0  0  0  0  0  0  0  0
    4.6490   -2.4060    1.3300 H   0  0  0  0  0  0  0  0  0  0  0  0
    5.4710    3.0340   -1.6570 Cl  0  0  0  0  0  0  0  0  0  0  0  0
   -5.3350    0.8400   -0.9840 C   0  0  0  0  0  0  0  0  0  0  0  0
   -6.0080    1.7030   -0.9700 H   0  0  0  0  0  0  0  0  0  0  0  0
   -5.9390   -0.0450   -1.2000 H   0  0  0  0  0  0  0  0  0  0  0  0
   -4.5950    1.0070   -1.7760 H   0  0  0  0  0  0  0  0  0  0  0  0
   -3.5880    3.1520    1.0110 C   0  0  0  0  0  0  0  0  0  0  0  0
   -3.3250    4.1590    1.3490 H   0  0  0  0  0  0  0  0  0  0  0  0
   -4.6110    2.9560    1.3440 H   0  0  0  0  0  0  0  0  0  0  0  0
   -3.5140    3.1430   -0.0820 H   0  0  0  0  0  0  0  0  0  0  0  0
   -3.7620   -2.9300   -1.4410 C   0  0  0  0  0  0  0  0  0  0  0  0
   -4.6800   -3.3530   -1.8610 H   0  0  0  0  0  0  0  0  0  0  0  0
   -3.3850   -3.6320   -0.6910 H   0  0  0  0  0  0  0  0  0  0  0  0
   -3.0490   -2.8030   -2.2620 H   0  0  0  0  0  0  0  0  0  0  0  0
  1  5  1  0  0  0  0
  1 10  2  0  0  0  0
  1 12  1  0  0  0  0
  2  3  2  0  0  0  0
  2  4  1  0  0  0  0
  2 22  1  0  0  0  0
  3 16  1  0  0  0  0
  3 23  1  0  0  0  0
  4 14  2  0  0  0  0
  4 24  1  0  0  0  0
  5  6  1  0  0  0  0
  5 18  2  0  0  0  0
  6  7  1  0  0  0  0
  6  8  2  0  0  0  0
  8  9  1  0  0  0  0
  8 11  1  0  0  0  0
 10 19  1  0  0  0  0
 10 27  1  0  0  0  0
 11 14  1  0  0  0  0
 11 16  2  0  0  0  0
 12 13  1  0  0  0  0
 12 21  2  0  0  0  0
 14 15  1  0  0  0  0
 16 17  1  0  0  0  0
 19 20  1  0  0  0  0
 19 25  2  0  0  0  0
 21 25  1  0  0  0  0
 21 29  1  0  0  0  0
 22 30  1  0  0  0  0
 23 34  1  0  0  0  0
 24 38  1  0  0  0  0
 25 26  1  0  0  0  0
 27 28  1  0  0  0  0
 30 31  1  0  0  0  0
 30 32  1  0  0  0  0
 30 33  1  0  0  0  0
 34 35  1  0  0  0  0
 34 36  1  0  0  0  0
 34 37  1  0  0  0  0
 38 39  1  0  0  0  0
 38 40  1  0  0  0  0
 38 41  1  0  0  0  0
M  END
>  <IDNUMBER>
AA-504/21163112

>  <NAME>
1-(5-chloro-2-hydroxyphenyl)-3-(3,4,5-trimethoxyphenyl)-2-propen-1-one

>  <ADD_INFO>
http://www.specs.net/enter.php?specsid=AA-504/21163112

>  <H_ACCEPTORS>
1

>  <H_DONORS>
1

>  <ROTATABLE_BONDS>
6

>  <LOGP>
4.1100001

>  <LOGS>
-4.6700001

>  <TPSA>
64.989998

>  <PRICE>
N06

$$$$
AA-504/21163144
  MOE2011           3D

 25 27  0  0  0  0  0  0  0  0999 V2000
    0.1610   -1.1740   -0.0020 C   0  0  0  0  0  0  0  0  0  0  0  0
    1.3880   -0.3750   -0.0020 C   0  0  0  0  0  0  0  0  0  0  0  0
   -1.1120   -0.4470   -0.0020 C   0  0  0  0  0  0  0  0  0  0  0  0
    1.2830    1.0120   -0.0020 C   0  0  0  0  0  0  0  0  0  0  0  0
    0.0860    1.6860   -0.0030 O   0  0  0  0  0  0  0  0  0  0  0  0
   -1.0750    0.9490   -0.0020 C   0  0  0  0  0  0  0  0  0  0  0  0
    0.2380   -2.3980   -0.0030 O   0  0  0  0  0  0  0  0  0  0  0  0
   -2.3270   -1.1380   -0.0010 C   0  0  0  0  0  0  0  0  0  0  0  0
   -2.3340   -2.2240    0.0000 H   0  0  0  0  0  0  0  0  0  0  0  0
    2.6410   -0.9940    0.0000 C   0  0  0  0  0  0  0  0  0  0  0  0
   -2.2720    1.6670   -0.0010 C   0  0  0  0  0  0  0  0  0  0  0  0
   -2.2590    2.7540   -0.0020 H   0  0  0  0  0  0  0  0  0  0  0  0
   -3.5100   -0.4070    0.0010 C   0  0  0  0  0  0  0  0  0  0  0  0
   -3.4910    0.9860    0.0000 C   0  0  0  0  0  0  0  0  0  0  0  0
   -4.4260    1.5410    0.0010 H   0  0  0  0  0  0  0  0  0  0  0  0
    2.4450    1.7860    0.0000 C   0  0  0  0  0  0  0  0  0  0  0  0
    2.3790    2.8710    0.0000 H   0  0  0  0  0  0  0  0  0  0  0  0
    2.7710   -2.3580    0.0000 O   0  0  0  0  0  0  0  0  0  0  0  0
    1.8560   -2.7340   -0.0020 H   0  0  0  0  0  0  0  0  0  0  0  0
   -4.7270   -1.0240    0.0030 O   0  0  0  0  0  0  0  0  0  0  0  0
   -4.5930   -1.9870    0.0070 H   0  0  0  0  0  0  0  0  0  0  0  0
    3.7010    1.1680    0.0020 C   0  0  0  0  0  0  0  0  0  0  0  0
    4.6040    1.7740    0.0040 H   0  0  0  0  0  0  0  0  0  0  0  0
    3.7990   -0.2260    0.0010 C   0  0  0  0  0  0  0  0  0  0  0  0
    4.7730   -0.7070    0.0030 H   0  0  0  0  0  0  0  0  0  0  0  0
  1  2  1  0  0  0  0
  1  3  1  0  0  0  0
  1  7  2  0  0  0  0
  2  4  2  0  0  0  0
  2 10  1  0  0  0  0
  3  6  2  0  0  0  0
  3  8  1  0  0  0  0
  4  5  1  0  0  0  0
  4 16  1  0  0  0  0
  5  6  1  0  0  0  0
  6 11  1  0  0  0  0
  8  9  1  0  0  0  0
  8 13  2  0  0  0  0
 10 18  1  0  0  0  0
 10 24  2  0  0  0  0
 11 12  1  0  0  0  0
 11 14  2  0  0  0  0
 13 14  1  0  0  0  0
 13 20  1  0  0  0  0
 14 15  1  0  0  0  0
 16 17  1  0  0  0  0
 16 22  2  0  0  0  0
 18 19  1  0  0  0  0
 20 21  1  0  0  0  0
 22 23  1  0  0  0  0
 22 24  1  0  0  0  0
 24 25  1  0  0  0  0
M  END
>  <IDNUMBER>
AA-504/21163144

>  <NAME>
1,7-Dihydroxyxanthone (Euxanthone, Purrenone)

>  <ADD_INFO>
http://www.specs.net/enter.php?specsid=AA-504/21163144

>  <H_ACCEPTORS>
1

>  <H_DONORS>
2

>  <ROTATABLE_BONDS>
0

>  <LOGP>
3.6600001

>  <LOGS>
-4.52

>  <TPSA>
66.760002

>  <PRICE>
N07

$$$$
AB-342/42478394
  MOE2011           3D

 54 54  0  0  1  0  0  0  0  0999 V2000
    1.8450   -0.1070    0.7300 C   0  0  0  0  0  0  0  0  0  0  0  0
    0.1130    1.6340    1.1990 C   0  0  2  0  0  0  0  0  0  0  0  0
    1.6160    1.1960    1.0150 C   0  0  0  0  0  0  0  0  0  0  0  0
   -0.5180   -0.8170    1.3300 C   0  0  0  0  0  0  0  0  0  0  0  0
    0.7600   -1.1100    0.6270 C   0  0  0  0  0  0  0  0  0  0  0  0
   -0.8110    0.4510    1.6970 C   0  0  0  0  0  0  0  0  0  0  0  0
    3.2430   -0.5670    0.4710 C   0  0  0  0  0  0  0  0  0  0  0  0
   -1.3690   -2.0180    1.6690 C   0  0  0  0  0  0  0  0  0  0  0  0
   -0.7240   -2.8260    2.0420 H   0  0  0  0  0  0  0  0  0  0  0  0
   -2.0420   -1.8120    2.5070 H   0  0  0  0  0  0  0  0  0  0  0  0
   -0.3760    2.2350   -0.1700 C   0  0  0  0  0  0  0  0  0  0  0  0
    0.2190    3.1330   -0.3910 H   0  0  0  0  0  0  0  0  0  0  0  0
   -0.1550    1.5300   -0.9780 H   0  0  0  0  0  0  0  0  0  0  0  0
   -2.1320   -2.5400    0.4750 C   0  0  0  0  0  0  0  0  0  0  0  0
   -1.5140   -3.1060   -0.2220 H   0  0  0  0  0  0  0  0  0  0  0  0
   -1.8170    2.6930   -0.2390 C   0  0  0  0  0  0  0  0  0  0  0  0
   -2.0350    3.5150    0.4410 H   0  0  0  0  0  0  0  0  0  0  0  0
    0.9390   -2.1680    0.0250 O   0  0  0  0  0  0  0  0  0  0  0  0
    3.8530   -0.1870   -0.8740 C   0  0  0  0  0  0  0  0  0  0  0  0
    3.5140   -0.9350   -1.6020 H   0  0  0  0  0  0  0  0  0  0  0  0
    3.4390    0.7740   -1.2000 H   0  0  0  0  0  0  0  0  0  0  0  0
    3.7990   -1.3240    1.2670 O   0  0  0  0  0  0  0  0  0  0  0  0
    2.4470    2.1520    1.0900 O   0  5  0  0  0  0  0  0  0  0  0  0
   -0.0150    2.6670    2.2100 O   0  0  0  0  0  0  0  0  0  0  0  0
   -0.7980    2.3000    2.6910 H   0  0  0  0  0  0  0  0  0  0  0  0
   -3.4380   -2.3820    0.1870 C   0  0  0  0  0  0  0  0  0  0  0  0
   -2.8130    2.2050   -1.0050 C   0  0  0  0  0  0  0  0  0  0  0  0
   -1.7530    0.8760    2.4400 O   0  5  0  0  0  0  0  0  0  0  0  0
    5.3870   -0.0860   -0.9160 C   0  0  0  0  0  0  0  0  0  0  0  0
    5.6440    0.2950   -1.9140 H   0  0  0  0  0  0  0  0  0  0  0  0
   -4.4170   -1.6040    1.0200 C   0  0  0  0  0  0  0  0  0  0  0  0
   -4.8390   -0.7810    0.4330 H   0  0  0  0  0  0  0  0  0  0  0  0
   -3.9790   -1.1670    1.9200 H   0  0  0  0  0  0  0  0  0  0  0  0
   -5.2380   -2.2550    1.3400 H   0  0  0  0  0  0  0  0  0  0  0  0
   -4.0210   -2.9780   -1.0660 C   0  0  0  0  0  0  0  0  0  0  0  0
   -4.8230   -3.6800   -0.8130 H   0  0  0  0  0  0  0  0  0  0  0  0
   -3.2760   -3.5240   -1.6540 H   0  0  0  0  0  0  0  0  0  0  0  0
   -4.4360   -2.1910   -1.7040 H   0  0  0  0  0  0  0  0  0  0  0  0
   -2.6870    1.0410   -1.9470 C   0  0  0  0  0  0  0  0  0  0  0  0
   -3.4820    0.3130   -1.7530 H   0  0  0  0  0  0  0  0  0  0  0  0
   -1.7420    0.5030   -1.8550 H   0  0  0  0  0  0  0  0  0  0  0  0
   -2.7830    1.3840   -2.9820 H   0  0  0  0  0  0  0  0  0  0  0  0
   -4.1920    2.8000   -0.9300 C   0  0  0  0  0  0  0  0  0  0  0  0
   -4.9120    2.0480   -0.5890 H   0  0  0  0  0  0  0  0  0  0  0  0
   -4.5040    3.1580   -1.9160 H   0  0  0  0  0  0  0  0  0  0  0  0
   -4.2440    3.6470   -0.2370 H   0  0  0  0  0  0  0  0  0  0  0  0
    6.0790   -1.4430   -0.7810 C   0  0  0  0  0  0  0  0  0  0  0  0
    5.9880   -1.8580    0.2270 H   0  0  0  0  0  0  0  0  0  0  0  0
    7.1490   -1.3470   -0.9970 H   0  0  0  0  0  0  0  0  0  0  0  0
    5.6620   -2.1670   -1.4890 H   0  0  0  0  0  0  0  0  0  0  0  0
    5.9370    0.9130    0.1010 C   0  0  0  0  0  0  0  0  0  0  0  0
    5.7610    0.5860    1.1310 H   0  0  0  0  0  0  0  0  0  0  0  0
    5.4750    1.8960   -0.0310 H   0  0  0  0  0  0  0  0  0  0  0  0
    7.0180    1.0360   -0.0280 H   0  0  0  0  0  0  0  0  0  0  0  0
  1  3  2  0  0  0  0
  1  5  1  0  0  0  0
  1  7  1  0  0  0  0
  2  3  1  0  0  0  0
  2  6  1  0  0  0  0
  2 11  1  0  0  0  0
  2 24  1  0  0  0  0
  3 23  1  0  0  0  0
  4  5  1  0  0  0  0
  4  6  2  0  0  0  0
  4  8  1  0  0  0  0
  5 18  2  0  0  0  0
  6 28  1  0  0  0  0
  7 19  1  0  0  0  0
  7 22  2  0  0  0  0
  8  9  1  0  0  0  0
  8 10  1  0  0  0  0
  8 14  1  0  0  0  0
 11 12  1  0  0  0  0
 11 13  1  0  0  0  0
 11 16  1  0  0  0  0
 14 15  1  0  0  0  0
 14 26  2  0  0  0  0
 16 17  1  0  0  0  0
 16 27  2  0  0  0  0
 19 20  1  0  0  0  0
 19 21  1  0  0  0  0
 19 29  1  0  0  0  0
 24 25  1  0  0  0  0
 26 31  1  0  0  0  0
 26 35  1  0  0  0  0
 27 39  1  0  0  0  0
 27 43  1  0  0  0  0
 29 30  1  0  0  0  0
 29 47  1  0  0  0  0
 29 51  1  0  0  0  0
 31 32  1  0  0  0  0
 31 33  1  0  0  0  0
 31 34  1  0  0  0  0
 35 36  1  0  0  0  0
 35 37  1  0  0  0  0
 35 38  1  0  0  0  0
 39 40  1  0  0  0  0
 39 41  1  0  0  0  0
 39 42  1  0  0  0  0
 43 44  1  0  0  0  0
 43 45  1  0  0  0  0
 43 46  1  0  0  0  0
 47 48  1  0  0  0  0
 47 49  1  0  0  0  0
 47 50  1  0  0  0  0
 51 52  1  0  0  0  0
 51 53  1  0  0  0  0
 51 54  1  0  0  0  0
M  CHG  1  23  -1
M  CHG  1  28  -1
M  END
>  <IDNUMBER>
AB-342/42478394

>  <NAME>
Humulone

>  <ADD_INFO>
http://www.specs.net/enter.php?specsid=AB-342/42478394

>  <H_ACCEPTORS>
5

>  <H_DONORS>
3

>  <ROTATABLE_BONDS>
7

>  <LOGP>
4.3099999

>  <LOGS>
-5.52

>  <TPSA>
94.830002

>  <PRICE>
N06

>  <STEREOCHEM>
4R-isomer

$$$$
AC-542/20316002
  MOE2011           3D

 33 35  0  0  0  0  0  0  0  0999 V2000
   -0.3100    1.7130    0.0030 C   0  0  0  0  0  0  0  0  0  0  0  0
    1.0340    1.1170    0.0050 C   0  0  0  0  0  0  0  0  0  0  0  0
   -1.4960    0.8470    0.0030 C   0  0  0  0  0  0  0  0  0  0  0  0
   -1.3490   -0.5390    0.0050 C   0  0  0  0  0  0  0  0  0  0  0  0
    1.1880   -0.2680    0.0060 C   0  0  0  0  0  0  0  0  0  0  0  0
   -0.0010   -1.1480    0.0080 C   0  0  0  0  0  0  0  0  0  0  0  0
    2.1620    1.9390    0.0050 C   0  0  0  0  0  0  0  0  0  0  0  0
   -2.7750    1.4130   -0.0010 C   0  0  0  0  0  0  0  0  0  0  0  0
    3.4370    1.3820    0.0050 C   0  0  0  0  0  0  0  0  0  0  0  0
    4.3090    2.0320    0.0040 H   0  0  0  0  0  0  0  0  0  0  0  0
    2.4730   -0.8320    0.0060 C   0  0  0  0  0  0  0  0  0  0  0  0
    2.5660   -1.9150    0.0070 H   0  0  0  0  0  0  0  0  0  0  0  0
   -2.4840   -1.3590    0.0040 C   0  0  0  0  0  0  0  0  0  0  0  0
   -2.3690   -2.4420    0.0060 H   0  0  0  0  0  0  0  0  0  0  0  0
   -0.4400    2.9380    0.0020 O   0  0  0  0  0  0  0  0  0  0  0  0
   -3.9050    0.6010   -0.0020 C   0  0  0  0  0  0  0  0  0  0  0  0
   -4.8920    1.0580   -0.0050 H   0  0  0  0  0  0  0  0  0  0  0  0
    0.1300   -2.3660    0.0100 O   0  0  0  0  0  0  0  0  0  0  0  0
    3.6010   -0.0070    0.0040 C   0  0  0  0  0  0  0  0  0  0  0  0
   -3.7680   -0.7940    0.0010 C   0  0  0  0  0  0  0  0  0  0  0  0
    2.0640    3.3060    0.0050 O   0  0  0  0  0  0  0  0  0  0  0  0
    1.1030    3.5340    0.0030 H   0  0  0  0  0  0  0  0  0  0  0  0
   -2.9700    2.7690   -0.0040 O   0  0  0  0  0  0  0  0  0  0  0  0
   -2.0800    3.1980   -0.0030 H   0  0  0  0  0  0  0  0  0  0  0  0
    4.9040   -0.4280    0.0020 O   0  0  0  0  0  0  0  0  0  0  0  0
   -4.9910   -1.6630    0.0000 C   0  0  0  0  0  0  0  0  0  0  0  0
   -4.7290   -2.7260    0.0090 H   0  0  0  0  0  0  0  0  0  0  0  0
   -5.5870   -1.4720   -0.8980 H   0  0  0  0  0  0  0  0  0  0  0  0
   -5.5990   -1.4590    0.8870 H   0  0  0  0  0  0  0  0  0  0  0  0
    5.1270   -1.8330   -0.0160 C   0  0  0  0  0  0  0  0  0  0  0  0
    6.2080   -2.0000   -0.0240 H   0  0  0  0  0  0  0  0  0  0  0  0
    4.7130   -2.2870   -0.9230 H   0  0  0  0  0  0  0  0  0  0  0  0
    4.7230   -2.3080    0.8850 H   0  0  0  0  0  0  0  0  0  0  0  0
  1  2  1  0  0  0  0
  1  3  1  0  0  0  0
  1 15  2  0  0  0  0
  2  5  2  0  0  0  0
  2  7  1  0  0  0  0
  3  4  2  0  0  0  0
  3  8  1  0  0  0  0
  4  6  1  0  0  0  0
  4 13  1  0  0  0  0
  5  6  1  0  0  0  0
  5 11  1  0  0  0  0
  6 18  2  0  0  0  0
  7  9  2  0  0  0  0
  7 21  1  0  0  0  0
  8 16  2  0  0  0  0
  8 23  1  0  0  0  0
  9 10  1  0  0  0  0
  9 19  1  0  0  0  0
 11 12  1  0  0  0  0
 11 19  2  0  0  0  0
 13 14  1  0  0  0  0
 13 20  2  0  0  0  0
 16 17  1  0  0  0  0
 16 20  1  0  0  0  0
 19 25  1  0  0  0  0
 20 26  1  0  0  0  0
 21 22  1  0  0  0  0
 23 24  1  0  0  0  0
 25 30  1  0  0  0  0
 26 27  1  0  0  0  0
 26 28  1  0  0  0  0
 26 29  1  0  0  0  0
 30 31  1  0  0  0  0
 30 32  1  0  0  0  0
 30 33  1  0  0  0  0
M  END
>  <IDNUMBER>
AC-542/20316002

>  <NAME>
Physcion

>  <ADD_INFO>
http://www.specs.net/enter.php?specsid=AC-542/20316002

>  <H_ACCEPTORS>
2

>  <H_DONORS>
2

>  <ROTATABLE_BONDS>
1

>  <LOGP>
4.5700002

>  <LOGS>
-5.6999998

>  <TPSA>
83.830002

>  <PRICE>
N07

$$$$
AC-542/20643018
  MOE2011           3D

 49 52  0  0  1  0  0  0  0  0999 V2000
   -0.9560   -0.1250   -0.1160 C   0  0  0  0  0  0  0  0  0  0  0  0
    0.1910   -0.9510    0.0270 C   0  0  0  0  0  0  0  0  0  0  0  0
   -0.7180    1.3830   -0.2010 C   0  0  3  0  0  0  0  0  0  0  0  0
    1.5180   -0.2890    0.1290 C   0  0  0  0  0  0  0  0  0  0  0  0
   -2.0080    2.2650   -0.2590 N   0  3  0  0  0  0  0  0  0  0  0  0
    1.5670    1.0090    0.6970 C   0  0  0  0  0  0  0  0  0  0  0  0
   -2.2490   -0.6800   -0.0850 C   0  0  0  0  0  0  0  0  0  0  0  0
    0.2610    1.7490    0.9450 C   0  0  0  0  0  0  0  0  0  0  0  0
    0.4810    2.8210    0.9480 H   0  0  0  0  0  0  0  0  0  0  0  0
   -0.1360    1.4730    1.9290 H   0  0  0  0  0  0  0  0  0  0  0  0
   -0.0280   -2.3270    0.2070 C   0  0  0  0  0  0  0  0  0  0  0  0
    2.7310   -0.8230   -0.3260 C   0  0  0  0  0  0  0  0  0  0  0  0
   -1.3080   -2.8970    0.1430 C   0  0  0  0  0  0  0  0  0  0  0  0
   -2.4150   -2.0710   -0.0120 C   0  0  0  0  0  0  0  0  0  0  0  0
   -3.4220   -2.4780   -0.0190 H   0  0  0  0  0  0  0  0  0  0  0  0
   -3.1530    1.5800    0.4940 C   0  0  0  0  0  0  0  0  0  0  0  0
   -2.8470    1.5090    1.5450 H   0  0  0  0  0  0  0  0  0  0  0  0
   -4.0330    2.2310    0.4280 H   0  0  0  0  0  0  0  0  0  0  0  0
    3.9620   -0.1920   -0.0840 C   0  0  0  0  0  0  0  0  0  0  0  0
   -3.4640    0.2030   -0.0860 C   0  0  0  0  0  0  0  0  0  0  0  0
   -4.2480   -0.2500    0.5350 H   0  0  0  0  0  0  0  0  0  0  0  0
   -3.8670    0.2720   -1.1020 H   0  0  0  0  0  0  0  0  0  0  0  0
    2.7930    1.6370    0.9600 C   0  0  0  0  0  0  0  0  0  0  0  0
    2.8240    2.6180    1.4290 H   0  0  0  0  0  0  0  0  0  0  0  0
    3.9910    1.0260    0.5900 C   0  0  0  0  0  0  0  0  0  0  0  0
    4.9200    1.5450    0.8020 H   0  0  0  0  0  0  0  0  0  0  0  0
    1.0020   -3.1720    0.5470 O   0  0  0  0  0  0  0  0  0  0  0  0
    0.6030   -4.0630    0.5770 H   0  0  0  0  0  0  0  0  0  0  0  0
    2.7540   -1.9560   -1.1030 O   0  0  0  0  0  0  0  0  0  0  0  0
    3.7020   -2.1500   -1.2390 H   0  0  0  0  0  0  0  0  0  0  0  0
   -1.3290   -4.2610    0.2990 O   0  0  0  0  0  0  0  0  0  0  0  0
   -2.3900    2.4720   -1.7370 C   0  0  0  0  0  0  0  0  0  0  0  0
   -3.3720    2.9530   -1.7770 H   0  0  0  0  0  0  0  0  0  0  0  0
   -2.4100    1.5040   -2.2450 H   0  0  0  0  0  0  0  0  0  0  0  0
   -1.6330    3.1130   -2.2000 H   0  0  0  0  0  0  0  0  0  0  0  0
   -1.8220    3.6640    0.3340 C   0  0  0  0  0  0  0  0  0  0  0  0
   -2.7400    4.2350    0.1640 H   0  0  0  0  0  0  0  0  0  0  0  0
   -0.9810    4.1470   -0.1730 H   0  0  0  0  0  0  0  0  0  0  0  0
   -1.6420    3.5710    1.4080 H   0  0  0  0  0  0  0  0  0  0  0  0
    5.0480   -0.8720   -0.5760 O   0  0  0  0  0  0  0  0  0  0  0  0
   -2.5900   -4.9030    0.1520 C   0  0  0  0  0  0  0  0  0  0  0  0
   -2.4280   -5.9830    0.2330 H   0  0  0  0  0  0  0  0  0  0  0  0
   -3.0250   -4.7030   -0.8330 H   0  0  0  0  0  0  0  0  0  0  0  0
   -3.2740   -4.6080    0.9550 H   0  0  0  0  0  0  0  0  0  0  0  0
    6.3260   -0.2990   -0.3260 C   0  0  0  0  0  0  0  0  0  0  0  0
    7.0810   -0.9620   -0.7590 H   0  0  0  0  0  0  0  0  0  0  0  0
    6.5230   -0.2260    0.7490 H   0  0  0  0  0  0  0  0  0  0  0  0
    6.4220    0.6770   -0.8140 H   0  0  0  0  0  0  0  0  0  0  0  0
   -0.2110    1.5830   -1.1560 H   0  0  0  0  0  0  0  0  0  0  0  0
  1  2  2  0  0  0  0
  1  3  1  0  0  0  0
  1  7  1  0  0  0  0
  2  4  1  0  0  0  0
  2 11  1  0  0  0  0
  3  5  1  0  0  0  0
  3  8  1  0  0  0  0
  3 49  1  0  0  0  0
  4  6  2  0  0  0  0
  4 12  1  0  0  0  0
  5 16  1  0  0  0  0
  5 32  1  0  0  0  0
  5 36  1  0  0  0  0
  6  8  1  0  0  0  0
  6 23  1  0  0  0  0
  7 14  2  0  0  0  0
  7 20  1  0  0  0  0
  8  9  1  0  0  0  0
  8 10  1  0  0  0  0
 11 13  2  0  0  0  0
 11 27  1  0  0  0  0
 12 19  2  0  0  0  0
 12 29  1  0  0  0  0
 13 14  1  0  0  0  0
 13 31  1  0  0  0  0
 14 15  1  0  0  0  0
 16 17  1  0  0  0  0
 16 18  1  0  0  0  0
 16 20  1  0  0  0  0
 19 25  1  0  0  0  0
 19 40  1  0  0  0  0
 20 21  1  0  0  0  0
 20 22  1  0  0  0  0
 23 24  1  0  0  0  0
 23 25  2  0  0  0  0
 25 26  1  0  0  0  0
 27 28  1  0  0  0  0
 29 30  1  0  0  0  0
 31 41  1  0  0  0  0
 32 33  1  0  0  0  0
 32 34  1  0  0  0  0
 32 35  1  0  0  0  0
 36 37  1  0  0  0  0
 36 38  1  0  0  0  0
 36 39  1  0  0  0  0
 40 45  1  0  0  0  0
 41 42  1  0  0  0  0
 41 43  1  0  0  0  0
 41 44  1  0  0  0  0
 45 46  1  0  0  0  0
 45 47  1  0  0  0  0
 45 48  1  0  0  0  0
M  CHG  1   5   1
M  END
>  <IDNUMBER>
AC-542/20643018

>  <NAME>
Magnoflorine (Thalictrine; Esholine)

>  <ADD_INFO>
http://www.specs.net/enter.php?specsid=AC-542/20643018

>  <H_ACCEPTORS>
0

>  <H_DONORS>
2

>  <ROTATABLE_BONDS>
2

>  <LOGP>
1.6799999

>  <LOGS>
-4.25

>  <TPSA>
58.919998

>  <PRICE>
N07

>  <STEREOCHEM>
(+)-isomer

$$$$
AC-542/20643019
  MOE2011           3D

 27 30  0  0  0  0  0  0  0  0999 V2000
   -2.2350   -0.1270   -0.2380 C   0  0  0  0  0  0  0  0  0  0  0  0
    0.1740    0.0960   -0.2140 C   0  0  0  0  0  0  0  0  0  0  0  0
   -2.0090   -1.4840   -0.0730 C   0  0  0  0  0  0  0  0  0  0  0  0
   -0.8340   -2.1180    0.0390 N   0  0  0  0  0  0  0  0  0  0  0  0
    0.2370   -1.3210   -0.0430 C   0  0  0  0  0  0  0  0  0  0  0  0
   -1.1010    0.6960   -0.2840 C   0  0  0  0  0  0  0  0  0  0  0  0
    1.3640    0.8520   -0.3030 C   0  0  0  0  0  0  0  0  0  0  0  0
    1.3440    1.9280   -0.4400 H   0  0  0  0  0  0  0  0  0  0  0  0
    1.4820   -1.9320    0.0430 C   0  0  0  0  0  0  0  0  0  0  0  0
    1.5570   -3.0070    0.1740 H   0  0  0  0  0  0  0  0  0  0  0  0
    2.5680    0.1930   -0.2130 C   0  0  0  0  0  0  0  0  0  0  0  0
    2.6240   -1.1640   -0.0430 C   0  0  0  0  0  0  0  0  0  0  0  0
   -3.1850   -2.1640   -0.0380 O   0  0  0  0  0  0  0  0  0  0  0  0
   -3.6440    0.0220   -0.3230 C   0  0  0  0  0  0  0  0  0  0  0  0
   -4.2030    0.9360   -0.4630 H   0  0  0  0  0  0  0  0  0  0  0  0
   -4.1730   -1.2430   -0.1920 C   0  0  0  0  0  0  0  0  0  0  0  0
   -5.1790   -1.6370   -0.1900 H   0  0  0  0  0  0  0  0  0  0  0  0
    3.7990    0.7630   -0.2760 O   0  0  0  0  0  0  0  0  0  0  0  0
    3.9010   -1.6260    0.0230 O   0  0  0  0  0  0  0  0  0  0  0  0
    4.6430   -0.3980   -0.1230 C   0  0  0  0  0  0  0  0  0  0  0  0
    5.2720   -0.2600    0.7650 H   0  0  0  0  0  0  0  0  0  0  0  0
    5.2900   -0.4810   -1.0040 H   0  0  0  0  0  0  0  0  0  0  0  0
   -1.2140    2.0560   -0.4830 O   0  0  0  0  0  0  0  0  0  0  0  0
   -1.5540    2.7080    0.7410 C   0  0  0  0  0  0  0  0  0  0  0  0
   -1.4950    3.7880    0.5720 H   0  0  0  0  0  0  0  0  0  0  0  0
   -0.8500    2.4520    1.5410 H   0  0  0  0  0  0  0  0  0  0  0  0
   -2.5790    2.4700    1.0440 H   0  0  0  0  0  0  0  0  0  0  0  0
  1  3  1  0  0  0  0
  1  6  2  0  0  0  0
  1 14  1  0  0  0  0
  2  5  2  0  0  0  0
  2  6  1  0  0  0  0
  2  7  1  0  0  0  0
  3  4  2  0  0  0  0
  3 13  1  0  0  0  0
  4  5  1  0  0  0  0
  5  9  1  0  0  0  0
  6 23  1  0  0  0  0
  7  8  1  0  0  0  0
  7 11  2  0  0  0  0
  9 10  1  0  0  0  0
  9 12  2  0  0  0  0
 11 12  1  0  0  0  0
 11 18  1  0  0  0  0
 12 19  1  0  0  0  0
 13 16  1  0  0  0  0
 14 15  1  0  0  0  0
 14 16  2  0  0  0  0
 16 17  1  0  0  0  0
 18 20  1  0  0  0  0
 19 20  1  0  0  0  0
 20 21  1  0  0  0  0
 20 22  1  0  0  0  0
 23 24  1  0  0  0  0
 24 25  1  0  0  0  0
 24 26  1  0  0  0  0
 24 27  1  0  0  0  0
M  END
>  <IDNUMBER>
AC-542/20643019

>  <NAME>
Maculine

>  <ADD_INFO>
http://www.specs.net/enter.php?specsid=AC-542/20643019

>  <H_ACCEPTORS>
1

>  <H_DONORS>
0

>  <ROTATABLE_BONDS>
1

>  <LOGP>
2.8299999

>  <LOGS>
-4.5

>  <TPSA>
53.720001

>  <PRICE>
N07

$$$$
AC-542/20643020
  MOE2011           3D

 32 34  0  0  0  0  0  0  0  0999 V2000
   -2.7450   -0.0800    0.2170 C   0  0  0  0  0  0  0  0  0  0  0  0
   -0.3370    0.1650    0.1760 C   0  0  0  0  0  0  0  0  0  0  0  0
   -2.5010   -1.4390    0.1070 C   0  0  0  0  0  0  0  0  0  0  0  0
   -1.3170   -2.0580    0.0170 N   0  0  0  0  0  0  0  0  0  0  0  0
   -0.2560   -1.2420    0.0640 C   0  0  0  0  0  0  0  0  0  0  0  0
   -1.6200    0.7550    0.2230 C   0  0  0  0  0  0  0  0  0  0  0  0
    0.8490    0.9280    0.2330 C   0  0  0  0  0  0  0  0  0  0  0  0
    0.7610    2.0070    0.3260 H   0  0  0  0  0  0  0  0  0  0  0  0
    1.0000   -1.8280    0.0020 C   0  0  0  0  0  0  0  0  0  0  0  0
    1.0320   -2.9110   -0.0870 H   0  0  0  0  0  0  0  0  0  0  0  0
    2.1050    0.3200    0.1730 C   0  0  0  0  0  0  0  0  0  0  0  0
    2.1800   -1.0760    0.0520 C   0  0  0  0  0  0  0  0  0  0  0  0
   -3.6680   -2.1360    0.1050 O   0  0  0  0  0  0  0  0  0  0  0  0
   -4.1540    0.0540    0.3010 C   0  0  0  0  0  0  0  0  0  0  0  0
   -4.7250    0.9660    0.4050 H   0  0  0  0  0  0  0  0  0  0  0  0
   -4.6670   -1.2220    0.2250 C   0  0  0  0  0  0  0  0  0  0  0  0
   -5.6690   -1.6280    0.2440 H   0  0  0  0  0  0  0  0  0  0  0  0
   -1.7450    2.1220    0.3620 O   0  0  0  0  0  0  0  0  0  0  0  0
    3.2990    0.9940    0.2200 O   0  0  0  0  0  0  0  0  0  0  0  0
    3.4440   -1.6110   -0.0060 O   0  0  0  0  0  0  0  0  0  0  0  0
   -2.1210    2.7130   -0.8840 C   0  0  0  0  0  0  0  0  0  0  0  0
   -2.0700    3.7990   -0.7660 H   0  0  0  0  0  0  0  0  0  0  0  0
   -3.1490    2.4500   -1.1520 H   0  0  0  0  0  0  0  0  0  0  0  0
   -1.4320    2.4260   -1.6870 H   0  0  0  0  0  0  0  0  0  0  0  0
    3.2550    2.4050    0.3810 C   0  0  0  0  0  0  0  0  0  0  0  0
    4.2870    2.7690    0.4160 H   0  0  0  0  0  0  0  0  0  0  0  0
    2.7740    2.6810    1.3250 H   0  0  0  0  0  0  0  0  0  0  0  0
    2.7630    2.8840   -0.4720 H   0  0  0  0  0  0  0  0  0  0  0  0
    3.5610   -3.0240   -0.1100 C   0  0  0  0  0  0  0  0  0  0  0  0
    4.6270   -3.2700   -0.1380 H   0  0  0  0  0  0  0  0  0  0  0  0
    3.1110   -3.3910   -1.0380 H   0  0  0  0  0  0  0  0  0  0  0  0
    3.1290   -3.5210    0.7650 H   0  0  0  0  0  0  0  0  0  0  0  0
  1  3  1  0  0  0  0
  1  6  2  0  0  0  0
  1 14  1  0  0  0  0
  2  5  2  0  0  0  0
  2  6  1  0  0  0  0
  2  7  1  0  0  0  0
  3  4  2  0  0  0  0
  3 13  1  0  0  0  0
  4  5  1  0  0  0  0
  5  9  1  0  0  0  0
  6 18  1  0  0  0  0
  7  8  1  0  0  0  0
  7 11  2  0  0  0  0
  9 10  1  0  0  0  0
  9 12  2  0  0  0  0
 11 12  1  0  0  0  0
 11 19  1  0  0  0  0
 12 20  1  0  0  0  0
 13 16  1  0  0  0  0
 14 15  1  0  0  0  0
 14 16  2  0  0  0  0
 16 17  1  0  0  0  0
 18 21  1  0  0  0  0
 19 25  1  0  0  0  0
 20 29  1  0  0  0  0
 21 22  1  0  0  0  0
 21 23  1  0  0  0  0
 21 24  1  0  0  0  0
 25 26  1  0  0  0  0
 25 27  1  0  0  0  0
 25 28  1  0  0  0  0
 29 30  1  0  0  0  0
 29 31  1  0  0  0  0
 29 32  1  0  0  0  0
M  END
>  <IDNUMBER>
AC-542/20643020

>  <NAME>
Kokusaginine

>  <ADD_INFO>
http://www.specs.net/enter.php?specsid=AC-542/20643020

>  <H_ACCEPTORS>
1

>  <H_DONORS>
0

>  <ROTATABLE_BONDS>
3

>  <LOGP>
2.4100001

>  <LOGS>
-4.2600002

>  <TPSA>
53.720001

>  <PRICE>
N07

$$$$
AC-542/20643021
  MOE2011           3D

 46 50  0  0  1  0  0  0  0  0999 V2000
    2.2470   -0.1960   -0.6740 C   0  0  0  0  0  0  0  0  0  0  0  0
   -2.1510   -1.1130    0.0230 C   0  0  0  0  0  0  0  0  0  0  0  0
   -0.9500   -1.9630   -0.1630 C   0  0  0  0  0  0  0  0  0  0  0  0
    3.5140   -0.2230   -0.0890 C   0  0  0  0  0  0  0  0  0  0  0  0
    1.4940   -1.3950   -0.6100 C   0  0  0  0  0  0  0  0  0  0  0  0
   -2.0890    0.2380    0.4540 C   0  0  0  0  0  0  0  0  0  0  0  0
   -3.3840   -1.7490   -0.1970 C   0  0  0  0  0  0  0  0  0  0  0  0
   -3.4410   -2.7900   -0.4980 H   0  0  0  0  0  0  0  0  0  0  0  0
   -4.5320   -1.0130   -0.0050 C   0  0  0  0  0  0  0  0  0  0  0  0
   -4.4890    0.2980    0.3960 C   0  0  0  0  0  0  0  0  0  0  0  0
    0.0970   -1.5480   -1.1870 C   0  0  0  0  0  0  0  0  0  0  0  0
    0.1210   -2.3250   -1.9620 H   0  0  0  0  0  0  0  0  0  0  0  0
   -0.2360   -0.6470   -1.7020 H   0  0  0  0  0  0  0  0  0  0  0  0
    1.0700    2.1220   -0.5520 N   0  3  3  0  0  0  0  0  0  0  0  0
    1.1230    2.9480   -1.1620 H   0  0  0  0  0  0  0  0  0  0  0  0
   -3.2940    0.9480    0.6320 C   0  0  0  0  0  0  0  0  0  0  0  0
   -3.3050    1.9820    0.9670 H   0  0  0  0  0  0  0  0  0  0  0  0
    1.8120    1.0680   -1.3640 C   0  0  0  0  0  0  0  0  0  0  0  0
    1.1990    0.8500   -2.2450 H   0  0  0  0  0  0  0  0  0  0  0  0
    2.6910    1.5880   -1.7700 H   0  0  0  0  0  0  0  0  0  0  0  0
    4.0440   -1.3420    0.5110 C   0  0  0  0  0  0  0  0  0  0  0  0
    4.3850    0.8290   -0.0450 O   0  0  0  0  0  0  0  0  0  0  0  0
   -5.8040   -1.4640   -0.1720 O   0  0  0  0  0  0  0  0  0  0  0  0
   -5.7310    0.8380    0.5330 O   0  0  0  0  0  0  0  0  0  0  0  0
    5.2930   -1.1360    1.0050 O   0  0  0  0  0  0  0  0  0  0  0  0
    5.5130    0.2360    0.6340 C   0  0  0  0  0  0  0  0  0  0  0  0
    6.3860    0.2890   -0.0260 H   0  0  0  0  0  0  0  0  0  0  0  0
    5.7200    0.8170    1.5400 H   0  0  0  0  0  0  0  0  0  0  0  0
   -6.5630   -0.2910    0.1890 C   0  0  0  0  0  0  0  0  0  0  0  0
   -7.2010   -0.0110   -0.6580 H   0  0  0  0  0  0  0  0  0  0  0  0
   -7.2000   -0.5340    1.0470 H   0  0  0  0  0  0  0  0  0  0  0  0
   -0.8870   -3.0090    0.4790 O   0  0  0  0  0  0  0  0  0  0  0  0
    2.0750   -2.5440   -0.0020 C   0  0  0  0  0  0  0  0  0  0  0  0
    1.5200   -3.4820    0.0320 H   0  0  0  0  0  0  0  0  0  0  0  0
   -0.7860    0.9500    0.7430 C   0  0  0  0  0  0  0  0  0  0  0  0
   -0.0030    0.2250    0.9680 H   0  0  0  0  0  0  0  0  0  0  0  0
   -0.8990    1.5270    1.6710 H   0  0  0  0  0  0  0  0  0  0  0  0
    3.3490   -2.5220    0.5680 C   0  0  0  0  0  0  0  0  0  0  0  0
    3.7740   -3.4050    1.0320 H   0  0  0  0  0  0  0  0  0  0  0  0
   -0.4150    1.8970   -0.3990 C   0  0  0  0  0  0  0  0  0  0  0  0
   -0.8560    2.8860   -0.2220 H   0  0  0  0  0  0  0  0  0  0  0  0
   -0.7830    1.5590   -1.3740 H   0  0  0  0  0  0  0  0  0  0  0  0
    1.7740    2.5660    0.7000 C   0  0  0  0  0  0  0  0  0  0  0  0
    1.8230    1.7340    1.4050 H   0  0  0  0  0  0  0  0  0  0  0  0
    1.2060    3.3970    1.1260 H   0  0  0  0  0  0  0  0  0  0  0  0
    2.7720    2.9120    0.4220 H   0  0  0  0  0  0  0  0  0  0  0  0
  1  4  2  0  0  0  0
  1  5  1  0  0  0  0
  1 18  1  0  0  0  0
  2  3  1  0  0  0  0
  2  6  1  0  0  0  0
  2  7  2  0  0  0  0
  3 11  1  0  0  0  0
  3 32  2  0  0  0  0
  4 21  1  0  0  0  0
  4 22  1  0  0  0  0
  5 11  1  0  0  0  0
  5 33  2  0  0  0  0
  6 16  2  0  0  0  0
  6 35  1  0  0  0  0
  7  8  1  0  0  0  0
  7  9  1  0  0  0  0
  9 10  2  0  0  0  0
  9 23  1  0  0  0  0
 10 16  1  0  0  0  0
 10 24  1  0  0  0  0
 11 12  1  0  0  0  0
 11 13  1  0  0  0  0
 14 15  1  0  0  0  0
 14 18  1  0  0  0  0
 14 40  1  0  0  0  0
 14 43  1  0  0  0  0
 16 17  1  0  0  0  0
 18 19  1  0  0  0  0
 18 20  1  0  0  0  0
 21 25  1  0  0  0  0
 21 38  2  0  0  0  0
 22 26  1  0  0  0  0
 23 29  1  0  0  0  0
 24 29  1  0  0  0  0
 25 26  1  0  0  0  0
 26 27  1  0  0  0  0
 26 28  1  0  0  0  0
 29 30  1  0  0  0  0
 29 31  1  0  0  0  0
 33 34  1  0  0  0  0
 33 38  1  0  0  0  0
 35 36  1  0  0  0  0
 35 37  1  0  0  0  0
 35 40  1  0  0  0  0
 38 39  1  0  0  0  0
 40 41  1  0  0  0  0
 40 42  1  0  0  0  0
 43 44  1  0  0  0  0
 43 45  1  0  0  0  0
 43 46  1  0  0  0  0
M  CHG  1  14   1
M  END
>  <IDNUMBER>
AC-542/20643021

>  <NAME>
Protopine

>  <ADD_INFO>
http://www.specs.net/enter.php?specsid=AC-542/20643021

>  <H_ACCEPTORS>
2

>  <H_DONORS>
0

>  <ROTATABLE_BONDS>
0

>  <LOGP>
3.47

>  <LOGS>
-4.8400002

>  <TPSA>
57.23

>  <PRICE>
N07

$$$$
AC-542/20643023
  MOE2011           3D

 32 34  0  0  0  0  0  0  0  0999 V2000
    0.0350   -0.7240   -0.1320 C   0  0  0  0  0  0  0  0  0  0  0  0
   -0.8260   -1.7520   -0.2700 N   0  0  0  0  0  0  0  0  0  0  0  0
   -2.6670   -0.1840    0.0870 C   0  0  0  0  0  0  0  0  0  0  0  0
   -2.1180   -1.4330   -0.1440 C   0  0  0  0  0  0  0  0  0  0  0  0
   -0.3810    0.6100    0.1030 C   0  0  0  0  0  0  0  0  0  0  0  0
   -1.7650    0.8820    0.1860 C   0  0  0  0  0  0  0  0  0  0  0  0
    1.4150   -0.9620   -0.2130 C   0  0  0  0  0  0  0  0  0  0  0  0
    0.5840    1.6280    0.2430 C   0  0  0  0  0  0  0  0  0  0  0  0
    0.2720    2.6550    0.4320 H   0  0  0  0  0  0  0  0  0  0  0  0
   -3.0930   -2.3770   -0.2270 O   0  0  0  0  0  0  0  0  0  0  0  0
   -4.0690   -0.3860    0.1630 C   0  0  0  0  0  0  0  0  0  0  0  0
   -4.8330    0.3570    0.3420 H   0  0  0  0  0  0  0  0  0  0  0  0
    2.3780    0.0590   -0.0970 C   0  0  0  0  0  0  0  0  0  0  0  0
   -4.2750   -1.7330   -0.0390 C   0  0  0  0  0  0  0  0  0  0  0  0
   -5.1560   -2.3590   -0.0730 H   0  0  0  0  0  0  0  0  0  0  0  0
    1.9480    1.3590    0.1420 C   0  0  0  0  0  0  0  0  0  0  0  0
    2.6410    2.1860    0.2520 H   0  0  0  0  0  0  0  0  0  0  0  0
   -2.2010    2.1640    0.4480 O   0  0  0  0  0  0  0  0  0  0  0  0
    1.8580   -2.2450   -0.4890 O   0  0  0  0  0  0  0  0  0  0  0  0
    3.6870   -0.3240   -0.2230 O   0  0  0  0  0  0  0  0  0  0  0  0
    2.0310   -2.9730    0.7270 C   0  0  0  0  0  0  0  0  0  0  0  0
    2.4140   -3.9650    0.4700 H   0  0  0  0  0  0  0  0  0  0  0  0
    1.0800   -3.1040    1.2540 H   0  0  0  0  0  0  0  0  0  0  0  0
    2.7630   -2.4880    1.3830 H   0  0  0  0  0  0  0  0  0  0  0  0
   -2.7170    2.7650   -0.7410 C   0  0  0  0  0  0  0  0  0  0  0  0
   -2.9080    3.8200   -0.5250 H   0  0  0  0  0  0  0  0  0  0  0  0
   -3.6640    2.3040   -1.0380 H   0  0  0  0  0  0  0  0  0  0  0  0
   -1.9930    2.7130   -1.5620 H   0  0  0  0  0  0  0  0  0  0  0  0
    4.6780    0.6910   -0.1310 C   0  0  0  0  0  0  0  0  0  0  0  0
    5.6550    0.2170   -0.2650 H   0  0  0  0  0  0  0  0  0  0  0  0
    4.6700    1.1610    0.8580 H   0  0  0  0  0  0  0  0  0  0  0  0
    4.5570    1.4360   -0.9240 H   0  0  0  0  0  0  0  0  0  0  0  0
  1  2  2  0  0  0  0
  1  5  1  0  0  0  0
  1  7  1  0  0  0  0
  2  4  1  0  0  0  0
  3  4  2  0  0  0  0
  3  6  1  0  0  0  0
  3 11  1  0  0  0  0
  4 10  1  0  0  0  0
  5  6  2  0  0  0  0
  5  8  1  0  0  0  0
  6 18  1  0  0  0  0
  7 13  2  0  0  0  0
  7 19  1  0  0  0  0
  8  9  1  0  0  0  0
  8 16  2  0  0  0  0
 10 14  1  0  0  0  0
 11 12  1  0  0  0  0
 11 14  2  0  0  0  0
 13 16  1  0  0  0  0
 13 20  1  0  0  0  0
 14 15  1  0  0  0  0
 16 17  1  0  0  0  0
 18 25  1  0  0  0  0
 19 21  1  0  0  0  0
 20 29  1  0  0  0  0
 21 22  1  0  0  0  0
 21 23  1  0  0  0  0
 21 24  1  0  0  0  0
 25 26  1  0  0  0  0
 25 27  1  0  0  0  0
 25 28  1  0  0  0  0
 29 30  1  0  0  0  0
 29 31  1  0  0  0  0
 29 32  1  0  0  0  0
M  END
>  <IDNUMBER>
AC-542/20643023

>  <NAME>
Skimmianine

>  <ADD_INFO>
http://www.specs.net/enter.php?specsid=AC-542/20643023

>  <H_ACCEPTORS>
1

>  <H_DONORS>
0

>  <ROTATABLE_BONDS>
3

>  <LOGP>
2.4100001

>  <LOGS>
-4.2600002

>  <TPSA>
53.720001

>  <PRICE>
N07

$$$$
AC-542/20643024
  MOE2011           3D

 42 47  0  0  1  0  0  0  0  0999 V2000
    0.2750    1.2330    0.6020 N   0  3  3  0  0  0  0  0  0  0  0  0
   -0.1550    1.8120    1.3350 H   0  0  0  0  0  0  0  0  0  0  0  0
    2.4750    0.0370    0.3040 C   0  0  0  0  0  0  0  0  0  0  0  0
   -0.3950   -0.1270    0.6920 C   0  0  3  0  0  0  0  0  0  0  0  0
   -1.8750   -0.0450    0.3730 C   0  0  0  0  0  0  0  0  0  0  0  0
    1.7410    1.1640    0.9530 C   0  0  0  0  0  0  0  0  0  0  0  0
    2.1760    2.1370    0.6970 H   0  0  0  0  0  0  0  0  0  0  0  0
    1.7840    1.0430    2.0420 H   0  0  0  0  0  0  0  0  0  0  0  0
    3.8590    0.0350    0.2580 C   0  0  0  0  0  0  0  0  0  0  0  0
    1.8100   -1.0830   -0.2210 C   0  0  0  0  0  0  0  0  0  0  0  0
    0.3030   -1.1480   -0.2350 C   0  0  0  0  0  0  0  0  0  0  0  0
   -0.0110   -2.1580    0.0590 H   0  0  0  0  0  0  0  0  0  0  0  0
   -0.0260   -1.0100   -1.2740 H   0  0  0  0  0  0  0  0  0  0  0  0
   -2.3950    1.0410   -0.3820 C   0  0  0  0  0  0  0  0  0  0  0  0
   -2.7310   -1.0800    0.7930 C   0  0  0  0  0  0  0  0  0  0  0  0
   -2.3700   -1.9290    1.3660 H   0  0  0  0  0  0  0  0  0  0  0  0
   -4.0650   -1.0020    0.4530 C   0  0  0  0  0  0  0  0  0  0  0  0
   -4.5670    0.0480   -0.2730 C   0  0  0  0  0  0  0  0  0  0  0  0
   -3.7640    1.0840   -0.7000 C   0  0  0  0  0  0  0  0  0  0  0  0
   -4.1910    1.9080   -1.2630 H   0  0  0  0  0  0  0  0  0  0  0  0
    4.5730   -1.0000   -0.2970 C   0  0  0  0  0  0  0  0  0  0  0  0
    4.6690    1.0190    0.7380 O   0  0  0  0  0  0  0  0  0  0  0  0
   -0.0210    1.9200   -0.7080 C   0  0  0  0  0  0  0  0  0  0  0  0
    0.5420    2.8600   -0.7320 H   0  0  0  0  0  0  0  0  0  0  0  0
    0.3280    1.2780   -1.5220 H   0  0  0  0  0  0  0  0  0  0  0  0
   -5.0200   -1.9150    0.7760 O   0  0  0  0  0  0  0  0  0  0  0  0
   -5.9030   -0.0690   -0.4980 O   0  0  0  0  0  0  0  0  0  0  0  0
    5.9160   -0.7970   -0.2400 O   0  0  0  0  0  0  0  0  0  0  0  0
    5.9720    0.4850    0.4180 C   0  0  0  0  0  0  0  0  0  0  0  0
    6.4900    1.1940   -0.2380 H   0  0  0  0  0  0  0  0  0  0  0  0
    6.5450    0.3790    1.3470 H   0  0  0  0  0  0  0  0  0  0  0  0
   -6.1840   -1.3190    0.1660 C   0  0  0  0  0  0  0  0  0  0  0  0
   -6.5950   -2.0220   -0.5670 H   0  0  0  0  0  0  0  0  0  0  0  0
   -6.9360   -1.1410    0.9440 H   0  0  0  0  0  0  0  0  0  0  0  0
   -1.5200    2.2000   -0.7990 C   0  0  0  0  0  0  0  0  0  0  0  0
   -1.7630    3.0500   -0.1480 H   0  0  0  0  0  0  0  0  0  0  0  0
   -1.7580    2.4960   -1.8270 H   0  0  0  0  0  0  0  0  0  0  0  0
    2.5520   -2.1390   -0.7990 C   0  0  0  0  0  0  0  0  0  0  0  0
    2.0380   -2.9990   -1.2250 H   0  0  0  0  0  0  0  0  0  0  0  0
    3.9480   -2.1010   -0.8370 C   0  0  0  0  0  0  0  0  0  0  0  0
    4.5210   -2.9110   -1.2760 H   0  0  0  0  0  0  0  0  0  0  0  0
   -0.2730   -0.4280    1.7420 H   0  0  0  0  0  0  0  0  0  0  0  0
  1  2  1  0  0  0  0
  1  4  1  0  0  0  0
  1  6  1  0  0  0  0
  1 23  1  0  0  0  0
  3  6  1  0  0  0  0
  3  9  2  0  0  0  0
  3 10  1  0  0  0  0
  4  5  1  0  0  0  0
  4 11  1  0  0  0  0
  4 42  1  0  0  0  0
  5 14  1  0  0  0  0
  5 15  2  0  0  0  0
  6  7  1  0  0  0  0
  6  8  1  0  0  0  0
  9 21  1  0  0  0  0
  9 22  1  0  0  0  0
 10 11  1  0  0  0  0
 10 38  2  0  0  0  0
 11 12  1  0  0  0  0
 11 13  1  0  0  0  0
 14 19  2  0  0  0  0
 14 35  1  0  0  0  0
 15 16  1  0  0  0  0
 15 17  1  0  0  0  0
 17 18  2  0  0  0  0
 17 26  1  0  0  0  0
 18 19  1  0  0  0  0
 18 27  1  0  0  0  0
 19 20  1  0  0  0  0
 21 28  1  0  0  0  0
 21 40  2  0  0  0  0
 22 29  1  0  0  0  0
 23 24  1  0  0  0  0
 23 25  1  0  0  0  0
 23 35  1  0  0  0  0
 26 32  1  0  0  0  0
 27 32  1  0  0  0  0
 28 29  1  0  0  0  0
 29 30  1  0  0  0  0
 29 31  1  0  0  0  0
 32 33  1  0  0  0  0
 32 34  1  0  0  0  0
 35 36  1  0  0  0  0
 35 37  1  0  0  0  0
 38 39  1  0  0  0  0
 38 40  1  0  0  0  0
 40 41  1  0  0  0  0
M  CHG  1   1   1
M  END
>  <IDNUMBER>
AC-542/20643024

>  <NAME>
Stylopine (Tetrahydrocoptisine)

>  <ADD_INFO>
http://www.specs.net/enter.php?specsid=AC-542/20643024

>  <H_ACCEPTORS>
1

>  <H_DONORS>
0

>  <ROTATABLE_BONDS>
0

>  <LOGP>
4.1500001

>  <LOGS>
-4.0999999

>  <TPSA>
40.16

>  <PRICE>
N07

>  <STEREOCHEM>
mixture of (+) and (+/-)-isomers

$$$$
AC-542/20644008
  MOE2011           3D

 51 51  0  0  0  0  0  0  0  0999 V2000
   -5.4130   -0.1230   -0.4960 C   0  0  0  0  0  0  0  0  0  0  0  0
   -5.1210    1.0300   -1.1450 C   0  0  0  0  0  0  0  0  0  0  0  0
   -6.1800   -0.2080    0.7980 C   0  0  0  0  0  0  0  0  0  0  0  0
   -6.2280    2.1970    0.8650 C   0  0  0  0  0  0  0  0  0  0  0  0
   -6.4640    3.1570    1.3140 H   0  0  0  0  0  0  0  0  0  0  0  0
   -6.5340    1.0750    1.5290 C   0  0  0  0  0  0  0  0  0  0  0  0
   -5.5900    2.3030   -0.4600 C   0  0  0  0  0  0  0  0  0  0  0  0
   -6.4980   -1.3210    1.2300 O   0  0  0  0  0  0  0  0  0  0  0  0
   -5.4630    3.4340   -0.9350 O   0  0  0  0  0  0  0  0  0  0  0  0
   -4.5070    1.1970   -2.2420 O   0  5  0  0  0  0  0  0  0  0  0  0
   -7.0820    0.9690    2.6650 O   0  5  0  0  0  0  0  0  0  0  0  0
   -5.0200   -1.4820   -1.0630 C   0  0  0  0  0  0  0  0  0  0  0  0
   -5.8960   -2.1430   -1.0480 H   0  0  0  0  0  0  0  0  0  0  0  0
   -4.7540   -1.4100   -2.1260 H   0  0  0  0  0  0  0  0  0  0  0  0
   -3.8640   -2.1700   -0.3210 C   0  0  0  0  0  0  0  0  0  0  0  0
   -4.1280   -2.3320    0.7310 H   0  0  0  0  0  0  0  0  0  0  0  0
   -3.7240   -3.1650   -0.7610 H   0  0  0  0  0  0  0  0  0  0  0  0
    7.0550    0.7770    0.4640 C   0  0  0  0  0  0  0  0  0  0  0  0
    7.1590   -0.1220   -0.1560 H   0  0  0  0  0  0  0  0  0  0  0  0
    7.9430    1.3930    0.2780 H   0  0  0  0  0  0  0  0  0  0  0  0
    5.8180    1.5660    0.0300 C   0  0  0  0  0  0  0  0  0  0  0  0
    5.9660    1.8910   -1.0070 H   0  0  0  0  0  0  0  0  0  0  0  0
    5.7330    2.4760    0.6370 H   0  0  0  0  0  0  0  0  0  0  0  0
   -0.0840   -1.4060    0.3060 C   0  0  0  0  0  0  0  0  0  0  0  0
   -0.2370   -0.4910    0.8890 H   0  0  0  0  0  0  0  0  0  0  0  0
    0.6480   -2.0140    0.8540 H   0  0  0  0  0  0  0  0  0  0  0  0
    0.4800   -1.0610   -1.0740 C   0  0  0  0  0  0  0  0  0  0  0  0
    0.4980   -1.9660   -1.6940 H   0  0  0  0  0  0  0  0  0  0  0  0
   -0.1750   -0.3430   -1.5800 H   0  0  0  0  0  0  0  0  0  0  0  0
    1.9010   -0.4880   -1.0250 C   0  0  0  0  0  0  0  0  0  0  0  0
    2.5680   -1.2260   -0.5650 H   0  0  0  0  0  0  0  0  0  0  0  0
    2.2470   -0.3450   -2.0560 H   0  0  0  0  0  0  0  0  0  0  0  0
    1.9900    0.8420   -0.2730 C   0  0  0  0  0  0  0  0  0  0  0  0
    1.2030    1.5150   -0.6340 H   0  0  0  0  0  0  0  0  0  0  0  0
    1.8060    0.6820    0.7960 H   0  0  0  0  0  0  0  0  0  0  0  0
    3.3390    1.5490   -0.4480 C   0  0  0  0  0  0  0  0  0  0  0  0
    3.5100    1.7500   -1.5130 H   0  0  0  0  0  0  0  0  0  0  0  0
    3.2820    2.5240    0.0520 H   0  0  0  0  0  0  0  0  0  0  0  0
    4.5200    0.7600    0.1230 C   0  0  0  0  0  0  0  0  0  0  0  0
    4.3100    0.5060    1.1690 H   0  0  0  0  0  0  0  0  0  0  0  0
    4.6410   -0.1810   -0.4250 H   0  0  0  0  0  0  0  0  0  0  0  0
   -2.5440   -1.3980   -0.4020 C   0  0  0  0  0  0  0  0  0  0  0  0
   -2.3100   -1.1990   -1.4530 H   0  0  0  0  0  0  0  0  0  0  0  0
   -2.6440   -0.4300    0.1030 H   0  0  0  0  0  0  0  0  0  0  0  0
   -1.4020   -2.1860    0.2450 C   0  0  0  0  0  0  0  0  0  0  0  0
   -1.6860   -2.4570    1.2690 H   0  0  0  0  0  0  0  0  0  0  0  0
   -1.2470   -3.1250   -0.2990 H   0  0  0  0  0  0  0  0  0  0  0  0
    7.0410    0.3790    1.9310 C   0  0  0  0  0  0  0  0  0  0  0  0
    6.2410   -0.3360    2.1450 H   0  0  0  0  0  0  0  0  0  0  0  0
    6.9050    1.2540    2.5750 H   0  0  0  0  0  0  0  0  0  0  0  0
    7.9900   -0.0960    2.2010 H   0  0  0  0  0  0  0  0  0  0  0  0
  1  2  2  0  0  0  0
  1  3  1  0  0  0  0
  1 12  1  0  0  0  0
  2  7  1  0  0  0  0
  2 10  1  0  0  0  0
  3  6  1  0  0  0  0
  3  8  2  0  0  0  0
  4  5  1  0  0  0  0
  4  6  2  0  0  0  0
  4  7  1  0  0  0  0
  6 11  1  0  0  0  0
  7  9  2  0  0  0  0
 12 13  1  0  0  0  0
 12 14  1  0  0  0  0
 12 15  1  0  0  0  0
 15 16  1  0  0  0  0
 15 17  1  0  0  0  0
 15 42  1  0  0  0  0
 18 19  1  0  0  0  0
 18 20  1  0  0  0  0
 18 21  1  0  0  0  0
 18 48  1  0  0  0  0
 21 22  1  0  0  0  0
 21 23  1  0  0  0  0
 21 39  1  0  0  0  0
 24 25  1  0  0  0  0
 24 26  1  0  0  0  0
 24 27  1  0  0  0  0
 24 45  1  0  0  0  0
 27 28  1  0  0  0  0
 27 29  1  0  0  0  0
 27 30  1  0  0  0  0
 30 31  1  0  0  0  0
 30 32  1  0  0  0  0
 30 33  1  0  0  0  0
 33 34  1  0  0  0  0
 33 35  1  0  0  0  0
 33 36  1  0  0  0  0
 36 37  1  0  0  0  0
 36 38  1  0  0  0  0
 36 39  1  0  0  0  0
 39 40  1  0  0  0  0
 39 41  1  0  0  0  0
 42 43  1  0  0  0  0
 42 44  1  0  0  0  0
 42 45  1  0  0  0  0
 45 46  1  0  0  0  0
 45 47  1  0  0  0  0
 48 49  1  0  0  0  0
 48 50  1  0  0  0  0
 48 51  1  0  0  0  0
M  CHG  1  10  -1
M  CHG  1  11  -1
M  END
>  <IDNUMBER>
AC-542/20644008

>  <NAME>
Rapanone

>  <ADD_INFO>
http://www.specs.net/enter.php?specsid=AC-542/20644008

>  <H_ACCEPTORS>
4

>  <H_DONORS>
2

>  <ROTATABLE_BONDS>
12

>  <LOGP>
6.8899999

>  <LOGS>
-6.9299998

>  <TPSA>
74.599998

>  <PRICE>
N07

$$$$
AC-542/20644009
  MOE2011           3D

 45 45  0  0  0  0  0  0  0  0999 V2000
   -3.9800    0.1810    0.8480 C   0  0  0  0  0  0  0  0  0  0  0  0
   -4.9180   -0.7770    0.6470 C   0  0  0  0  0  0  0  0  0  0  0  0
   -4.0050    1.5500    0.2180 C   0  0  0  0  0  0  0  0  0  0  0  0
   -5.9690    0.8900   -1.0090 C   0  0  0  0  0  0  0  0  0  0  0  0
   -6.7670    1.0420   -1.7300 H   0  0  0  0  0  0  0  0  0  0  0  0
   -5.0610    1.8590   -0.8290 C   0  0  0  0  0  0  0  0  0  0  0  0
   -6.0320   -0.4110   -0.3180 C   0  0  0  0  0  0  0  0  0  0  0  0
   -3.1640    2.3820    0.5700 O   0  0  0  0  0  0  0  0  0  0  0  0
   -6.9940   -1.1390   -0.5770 O   0  0  0  0  0  0  0  0  0  0  0  0
   -4.9930   -1.9390    1.1500 O   0  5  0  0  0  0  0  0  0  0  0  0
   -4.9940    2.9800   -1.4140 O   0  5  0  0  0  0  0  0  0  0  0  0
   -2.8100   -0.0330    1.8010 C   0  0  0  0  0  0  0  0  0  0  0  0
   -2.7380    0.8300    2.4770 H   0  0  0  0  0  0  0  0  0  0  0  0
   -2.9880   -0.8850    2.4680 H   0  0  0  0  0  0  0  0  0  0  0  0
   -1.4520   -0.2340    1.1080 C   0  0  0  0  0  0  0  0  0  0  0  0
   -1.2120    0.6410    0.4950 H   0  0  0  0  0  0  0  0  0  0  0  0
   -0.6800   -0.2920    1.8860 H   0  0  0  0  0  0  0  0  0  0  0  0
    4.2050    2.0450    0.3960 C   0  0  0  0  0  0  0  0  0  0  0  0
    4.4010    2.9590   -0.1780 H   0  0  0  0  0  0  0  0  0  0  0  0
    3.3400    2.2530    1.0370 H   0  0  0  0  0  0  0  0  0  0  0  0
    3.8670    0.9210   -0.5870 C   0  0  0  0  0  0  0  0  0  0  0  0
    4.7360    0.7140   -1.2240 H   0  0  0  0  0  0  0  0  0  0  0  0
    3.0710    1.2860   -1.2460 H   0  0  0  0  0  0  0  0  0  0  0  0
    0.5860   -0.7760   -1.2010 C   0  0  0  0  0  0  0  0  0  0  0  0
   -0.1390   -0.5870   -2.0020 H   0  0  0  0  0  0  0  0  0  0  0  0
    0.7220    0.1760   -0.6770 H   0  0  0  0  0  0  0  0  0  0  0  0
    1.9090   -1.1970   -1.8490 C   0  0  0  0  0  0  0  0  0  0  0  0
    1.7350   -2.0940   -2.4570 H   0  0  0  0  0  0  0  0  0  0  0  0
    2.2180   -0.4160   -2.5540 H   0  0  0  0  0  0  0  0  0  0  0  0
    3.0600   -1.4910   -0.8810 C   0  0  0  0  0  0  0  0  0  0  0  0
    2.8250   -2.3950   -0.3060 H   0  0  0  0  0  0  0  0  0  0  0  0
    3.9520   -1.7370   -1.4720 H   0  0  0  0  0  0  0  0  0  0  0  0
    3.4120   -0.3690    0.1010 C   0  0  0  0  0  0  0  0  0  0  0  0
    2.5600   -0.1600    0.7570 H   0  0  0  0  0  0  0  0  0  0  0  0
    4.2160   -0.7400    0.7490 H   0  0  0  0  0  0  0  0  0  0  0  0
   -1.3940   -1.5020    0.2490 C   0  0  0  0  0  0  0  0  0  0  0  0
   -1.7500   -2.3540    0.8410 H   0  0  0  0  0  0  0  0  0  0  0  0
   -2.0670   -1.4060   -0.6110 H   0  0  0  0  0  0  0  0  0  0  0  0
    0.0170   -1.8310   -0.2500 C   0  0  0  0  0  0  0  0  0  0  0  0
    0.6800   -1.9600    0.6130 H   0  0  0  0  0  0  0  0  0  0  0  0
   -0.0200   -2.7980   -0.7680 H   0  0  0  0  0  0  0  0  0  0  0  0
    5.4200    1.7530    1.2630 C   0  0  0  0  0  0  0  0  0  0  0  0
    6.2920    1.5060    0.6490 H   0  0  0  0  0  0  0  0  0  0  0  0
    5.2330    0.9220    1.9500 H   0  0  0  0  0  0  0  0  0  0  0  0
    5.6690    2.6310    1.8680 H   0  0  0  0  0  0  0  0  0  0  0  0
  1  2  2  0  0  0  0
  1  3  1  0  0  0  0
  1 12  1  0  0  0  0
  2  7  1  0  0  0  0
  2 10  1  0  0  0  0
  3  6  1  0  0  0  0
  3  8  2  0  0  0  0
  4  5  1  0  0  0  0
  4  6  2  0  0  0  0
  4  7  1  0  0  0  0
  6 11  1  0  0  0  0
  7  9  2  0  0  0  0
 12 13  1  0  0  0  0
 12 14  1  0  0  0  0
 12 15  1  0  0  0  0
 15 16  1  0  0  0  0
 15 17  1  0  0  0  0
 15 36  1  0  0  0  0
 18 19  1  0  0  0  0
 18 20  1  0  0  0  0
 18 21  1  0  0  0  0
 18 42  1  0  0  0  0
 21 22  1  0  0  0  0
 21 23  1  0  0  0  0
 21 33  1  0  0  0  0
 24 25  1  0  0  0  0
 24 26  1  0  0  0  0
 24 27  1  0  0  0  0
 24 39  1  0  0  0  0
 27 28  1  0  0  0  0
 27 29  1  0  0  0  0
 27 30  1  0  0  0  0
 30 31  1  0  0  0  0
 30 32  1  0  0  0  0
 30 33  1  0  0  0  0
 33 34  1  0  0  0  0
 33 35  1  0  0  0  0
 36 37  1  0  0  0  0
 36 38  1  0  0  0  0
 36 39  1  0  0  0  0
 39 40  1  0  0  0  0
 39 41  1  0  0  0  0
 42 43  1  0  0  0  0
 42 44  1  0  0  0  0
 42 45  1  0  0  0  0
M  CHG  1  10  -1
M  CHG  1  11  -1
M  END
>  <IDNUMBER>
AC-542/20644009

>  <NAME>
Embelin

>  <ADD_INFO>
http://www.specs.net/enter.php?specsid=AC-542/20644009

>  <H_ACCEPTORS>
4

>  <H_DONORS>
2

>  <ROTATABLE_BONDS>
10

>  <LOGP>
5.9099998

>  <LOGS>
-5.8899999

>  <TPSA>
74.599998

>  <PRICE>
N07

$$$$
AC-542/20644016
  MOE2011           3D

 64 70  0  0  1  0  0  0  0  0999 V2000
    1.5550    1.2120   -0.9550 C   0  0  3  0  0  0  0  0  0  0  0  0
    2.2490    2.5720   -0.9310 C   0  0  3  0  0  0  0  0  0  0  0  0
    0.0050    1.1420   -1.1570 C   0  0  3  0  0  0  0  0  0  0  0  0
    2.2530    0.1130   -0.1480 C   0  0  3  0  0  0  0  0  0  0  0  0
    2.3120    1.7040   -2.0730 O   0  0  0  0  0  0  0  0  0  0  0  0
   -2.2090    0.3790    0.1450 C   0  0  3  0  0  0  0  0  0  0  0  0
   -0.7030    0.8920    0.2950 C   0  0  3  0  0  0  0  0  0  0  0  0
    3.5250    2.7980   -0.2200 C   0  0  0  0  0  0  0  0  0  0  0  0
   -2.0750   -0.8440   -0.7820 C   0  0  3  0  0  0  0  0  0  0  0  0
    3.7990    0.4080   -0.1150 C   0  0  3  0  0  0  0  0  0  0  0  0
   -0.4060    0.0950   -2.2460 C   0  0  0  0  0  0  0  0  0  0  0  0
    4.0780    1.7260    0.4010 O   0  0  0  0  0  0  0  0  0  0  0  0
   -3.0730   -0.2380    1.2650 C   0  0  3  0  0  0  0  0  0  0  0  0
   -3.0560   -1.9060   -0.2960 C   0  0  0  0  0  0  0  0  0  0  0  0
   -3.0300   -1.6560    1.1460 O   0  0  0  0  0  0  0  0  0  0  0  0
   -1.8290   -0.4710   -2.2140 C   0  0  0  0  0  0  0  0  0  0  0  0
   -2.5400    0.2640   -2.5990 H   0  0  0  0  0  0  0  0  0  0  0  0
   -1.8610   -1.3580   -2.8560 H   0  0  0  0  0  0  0  0  0  0  0  0
    4.6260   -0.5890    0.6540 C   0  0  0  0  0  0  0  0  0  0  0  0
   -2.9440    0.4530    2.5870 C   0  0  0  0  0  0  0  0  0  0  0  0
   -1.9980    0.2610    3.0870 H   0  0  0  0  0  0  0  0  0  0  0  0
   -3.7300    0.0930    3.2620 H   0  0  0  0  0  0  0  0  0  0  0  0
    1.6330    0.1950    1.2580 C   0  0  0  0  0  0  0  0  0  0  0  0
    2.0770   -0.5560    1.9210 H   0  0  0  0  0  0  0  0  0  0  0  0
    1.8410    1.1720    1.7120 H   0  0  0  0  0  0  0  0  0  0  0  0
   -3.1060    1.5950   -0.1300 C   0  0  0  0  0  0  0  0  0  0  0  0
   -4.1190    1.3370   -0.4580 H   0  0  0  0  0  0  0  0  0  0  0  0
   -2.7390    2.2730   -0.8870 H   0  0  0  0  0  0  0  0  0  0  0  0
   -3.1410    1.9390    2.3710 C   0  0  0  0  0  0  0  0  0  0  0  0
    0.1220   -0.0170    1.2570 C   0  0  0  0  0  0  0  0  0  0  0  0
   -0.1980    0.1790    2.2830 H   0  0  0  0  0  0  0  0  0  0  0  0
   -0.0750   -1.0800    1.1030 H   0  0  0  0  0  0  0  0  0  0  0  0
   -3.2300    2.4050    1.0910 O   0  0  0  0  0  0  0  0  0  0  0  0
    3.9920    3.9250   -0.1290 O   0  0  0  0  0  0  0  0  0  0  0  0
    5.3200   -1.6690    0.1400 C   0  0  0  0  0  0  0  0  0  0  0  0
    5.4410   -2.0710   -0.8570 H   0  0  0  0  0  0  0  0  0  0  0  0
    0.3440   -0.2080   -3.1770 O   0  0  0  0  0  0  0  0  0  0  0  0
    4.9050   -0.6050    2.0530 C   0  0  0  0  0  0  0  0  0  0  0  0
    4.5590    0.0970    2.7990 H   0  0  0  0  0  0  0  0  0  0  0  0
    5.9680   -2.3460    1.1200 O   0  0  0  0  0  0  0  0  0  0  0  0
    5.7120   -1.6940    2.2820 C   0  0  0  0  0  0  0  0  0  0  0  0
    6.1710   -2.1140    3.1650 H   0  0  0  0  0  0  0  0  0  0  0  0
   -3.2130    2.7100    3.3240 O   0  0  0  0  0  0  0  0  0  0  0  0
   -0.5000    2.4650   -1.8130 C   0  0  0  0  0  0  0  0  0  0  0  0
   -0.5870    3.2740   -1.0800 H   0  0  0  0  0  0  0  0  0  0  0  0
   -1.4580    2.3520   -2.3270 H   0  0  0  0  0  0  0  0  0  0  0  0
    0.1700    2.8080   -2.6110 H   0  0  0  0  0  0  0  0  0  0  0  0
    2.0510   -1.2820   -0.7740 C   0  0  0  0  0  0  0  0  0  0  0  0
    2.4970   -2.0700   -0.1580 H   0  0  0  0  0  0  0  0  0  0  0  0
    2.5050   -1.3320   -1.7700 H   0  0  0  0  0  0  0  0  0  0  0  0
    1.0040   -1.5570   -0.8860 H   0  0  0  0  0  0  0  0  0  0  0  0
   -4.4610   -1.7850   -0.8940 C   0  0  0  0  0  0  0  0  0  0  0  0
   -4.4670   -2.0820   -1.9490 H   0  0  0  0  0  0  0  0  0  0  0  0
   -4.8630   -0.7710   -0.8430 H   0  0  0  0  0  0  0  0  0  0  0  0
   -5.1650   -2.4240   -0.3490 H   0  0  0  0  0  0  0  0  0  0  0  0
   -2.5480   -3.3350   -0.5160 C   0  0  0  0  0  0  0  0  0  0  0  0
   -2.4360   -3.5640   -1.5810 H   0  0  0  0  0  0  0  0  0  0  0  0
   -3.2400   -4.0620   -0.0750 H   0  0  0  0  0  0  0  0  0  0  0  0
   -1.5840   -3.4960   -0.0210 H   0  0  0  0  0  0  0  0  0  0  0  0
    1.6650    3.4770   -1.0280 H   0  0  0  0  0  0  0  0  0  0  0  0
   -0.7110    1.8730    0.7910 H   0  0  0  0  0  0  0  0  0  0  0  0
   -1.1370   -1.3390   -0.5100 H   0  0  0  0  0  0  0  0  0  0  0  0
    4.1900    0.3960   -1.1440 H   0  0  0  0  0  0  0  0  0  0  0  0
   -4.1390   -0.0650    1.0470 H   0  0  0  0  0  0  0  0  0  0  0  0
  1  2  1  0  0  0  0
  1  3  1  0  0  0  0
  1  4  1  0  0  0  0
  1  5  1  0  0  0  0
  2  5  1  0  0  0  0
  2  8  1  0  0  0  0
  2 60  1  0  0  0  0
  3  7  1  0  0  0  0
  3 11  1  0  0  0  0
  3 44  1  0  0  0  0
  4 10  1  0  0  0  0
  4 23  1  0  0  0  0
  4 48  1  0  0  0  0
  6  7  1  0  0  0  0
  6  9  1  0  0  0  0
  6 13  1  0  0  0  0
  6 26  1  0  0  0  0
  7 30  1  0  0  0  0
  7 61  1  0  0  0  0
  8 12  1  0  0  0  0
  8 34  2  0  0  0  0
  9 14  1  0  0  0  0
  9 16  1  0  0  0  0
  9 62  1  0  0  0  0
 10 12  1  0  0  0  0
 10 19  1  0  0  0  0
 10 63  1  0  0  0  0
 11 16  1  0  0  0  0
 11 37  2  0  0  0  0
 13 15  1  0  0  0  0
 13 20  1  0  0  0  0
 13 64  1  0  0  0  0
 14 15  1  0  0  0  0
 14 52  1  0  0  0  0
 14 56  1  0  0  0  0
 16 17  1  0  0  0  0
 16 18  1  0  0  0  0
 19 35  2  0  0  0  0
 19 38  1  0  0  0  0
 20 21  1  0  0  0  0
 20 22  1  0  0  0  0
 20 29  1  0  0  0  0
 23 24  1  0  0  0  0
 23 25  1  0  0  0  0
 23 30  1  0  0  0  0
 26 27  1  0  0  0  0
 26 28  1  0  0  0  0
 26 33  1  0  0  0  0
 29 33  1  0  0  0  0
 29 43  2  0  0  0  0
 30 31  1  0  0  0  0
 30 32  1  0  0  0  0
 35 36  1  0  0  0  0
 35 40  1  0  0  0  0
 38 39  1  0  0  0  0
 38 41  2  0  0  0  0
 40 41  1  0  0  0  0
 41 42  1  0  0  0  0
 44 45  1  0  0  0  0
 44 46  1  0  0  0  0
 44 47  1  0  0  0  0
 48 49  1  0  0  0  0
 48 50  1  0  0  0  0
 48 51  1  0  0  0  0
 52 53  1  0  0  0  0
 52 54  1  0  0  0  0
 52 55  1  0  0  0  0
 56 57  1  0  0  0  0
 56 58  1  0  0  0  0
 56 59  1  0  0  0  0
M  END
>  <IDNUMBER>
AC-542/20644016

>  <NAME>
Limonin (Citrolimon; Evodine; Dictamnolactone; Obaculactone)

>  <ADD_INFO>
http://www.specs.net/enter.php?specsid=AC-542/20644016

>  <H_ACCEPTORS>
7

>  <H_DONORS>
0

>  <ROTATABLE_BONDS>
1

>  <LOGP>
0.72000003

>  <LOGS>
-3.24

>  <TPSA>
104.57

>  <PRICE>
N07

$$$$
AC-542/20644021
  MOE2011           3D

 38 40  0  0  1  0  0  0  0  0999 V2000
    0.6390    2.1820   -0.0460 C   0  0  3  0  0  0  0  0  0  0  0  0
   -0.1480    2.7550    1.0220 O   0  0  0  0  0  0  0  0  0  0  0  0
   -0.8770    2.4130   -0.1540 C   0  0  3  0  0  0  0  0  0  0  0  0
    1.4130    0.9790    0.4010 C   0  0  3  0  0  0  0  0  0  0  0  0
    2.7510    1.4190    0.7410 O   0  0  0  0  0  0  0  0  0  0  0  0
    3.6370    0.4040    0.5520 C   0  0  0  0  0  0  0  0  0  0  0  0
    2.9380   -0.6460   -0.2230 C   0  0  0  0  0  0  0  0  0  0  0  0
    1.6300   -0.0840   -0.6750 C   0  0  3  0  0  0  0  0  0  0  0  0
    0.4800   -1.0800   -0.8810 C   0  0  0  0  0  0  0  0  0  0  0  0
   -0.3540   -0.5410   -1.3380 H   0  0  0  0  0  0  0  0  0  0  0  0
    0.7750   -1.8140   -1.6430 H   0  0  0  0  0  0  0  0  0  0  0  0
    4.7950    0.3860    0.9260 O   0  0  0  0  0  0  0  0  0  0  0  0
   -1.4810   -1.9850    0.4500 C   0  0  0  0  0  0  0  0  0  0  0  0
    3.4710   -1.8590   -0.4030 C   0  0  0  0  0  0  0  0  0  0  0  0
    4.4460   -2.1110    0.0060 H   0  0  0  0  0  0  0  0  0  0  0  0
    2.9600   -2.6300   -0.9690 H   0  0  0  0  0  0  0  0  0  0  0  0
   -2.3030   -0.9830    0.8240 C   0  0  0  0  0  0  0  0  0  0  0  0
   -3.3770   -1.1640    0.8400 H   0  0  0  0  0  0  0  0  0  0  0  0
    0.0250   -1.8490    0.3710 C   0  0  0  0  0  0  0  0  0  0  0  0
    0.3900   -1.4030    1.3000 H   0  0  0  0  0  0  0  0  0  0  0  0
    0.4820   -2.8470    0.3570 H   0  0  0  0  0  0  0  0  0  0  0  0
   -1.9390    1.3470   -0.0140 C   0  0  0  0  0  0  0  0  0  0  0  0
   -2.9170    1.8470    0.0160 H   0  0  0  0  0  0  0  0  0  0  0  0
   -1.9550    0.7820   -0.9530 H   0  0  0  0  0  0  0  0  0  0  0  0
   -1.3160    3.6180   -0.9460 C   0  0  0  0  0  0  0  0  0  0  0  0
   -1.5700    3.3240   -1.9690 H   0  0  0  0  0  0  0  0  0  0  0  0
   -0.5340    4.3820   -0.9990 H   0  0  0  0  0  0  0  0  0  0  0  0
   -2.1980    4.0780   -0.4890 H   0  0  0  0  0  0  0  0  0  0  0  0
   -1.8930    0.4180    1.2000 C   0  0  0  0  0  0  0  0  0  0  0  0
   -2.5970    0.7860    1.9590 H   0  0  0  0  0  0  0  0  0  0  0  0
   -0.9340    0.4090    1.7100 H   0  0  0  0  0  0  0  0  0  0  0  0
   -2.0300   -3.3310    0.0640 C   0  0  0  0  0  0  0  0  0  0  0  0
   -1.7360   -3.5800   -0.9620 H   0  0  0  0  0  0  0  0  0  0  0  0
   -3.1240   -3.3630    0.1120 H   0  0  0  0  0  0  0  0  0  0  0  0
   -1.6440   -4.1050    0.7350 H   0  0  0  0  0  0  0  0  0  0  0  0
    1.2710    2.8540   -0.6200 H   0  0  0  0  0  0  0  0  0  0  0  0
    1.0140    0.5770    1.3330 H   0  0  0  0  0  0  0  0  0  0  0  0
    1.8130    0.4140   -1.6380 H   0  0  0  0  0  0  0  0  0  0  0  0
  1  2  1  0  0  0  0
  1  3  1  0  0  0  0
  1  4  1  0  0  0  0
  1 36  1  0  0  0  0
  2  3  1  0  0  0  0
  3 22  1  0  0  0  0
  3 25  1  0  0  0  0
  4  5  1  0  0  0  0
  4  8  1  0  0  0  0
  4 37  1  0  0  0  0
  5  6  1  0  0  0  0
  6  7  1  0  0  0  0
  6 12  2  0  0  0  0
  7  8  1  0  0  0  0
  7 14  2  0  0  0  0
  8  9  1  0  0  0  0
  8 38  1  0  0  0  0
  9 10  1  0  0  0  0
  9 11  1  0  0  0  0
  9 19  1  0  0  0  0
 13 17  2  0  0  0  0
 13 19  1  0  0  0  0
 13 32  1  0  0  0  0
 14 15  1  0  0  0  0
 14 16  1  0  0  0  0
 17 18  1  0  0  0  0
 17 29  1  0  0  0  0
 19 20  1  0  0  0  0
 19 21  1  0  0  0  0
 22 23  1  0  0  0  0
 22 24  1  0  0  0  0
 22 29  1  0  0  0  0
 25 26  1  0  0  0  0
 25 27  1  0  0  0  0
 25 28  1  0  0  0  0
 29 30  1  0  0  0  0
 29 31  1  0  0  0  0
 32 33  1  0  0  0  0
 32 34  1  0  0  0  0
 32 35  1  0  0  0  0
M  END
>  <IDNUMBER>
AC-542/20644021

>  <NAME>
Parthenolide

>  <ADD_INFO>
http://www.specs.net/enter.php?specsid=AC-542/20644021

>  <H_ACCEPTORS>
3

>  <H_DONORS>
0

>  <ROTATABLE_BONDS>
0

>  <LOGP>
2.7

>  <LOGS>
-3.3199999

>  <TPSA>
38.830002

>  <PRICE>
N07

$$$$
AC-542/21143022
  MOE2011           3D

 49 50  0  0  0  0  0  0  0  0999 V2000
   -3.1430   -0.4970    0.4470 C   0  0  0  0  0  0  0  0  0  0  0  0
   -4.2880   -0.7960    1.2090 C   0  0  0  0  0  0  0  0  0  0  0  0
   -3.2720    0.3440   -0.6720 C   0  0  0  0  0  0  0  0  0  0  0  0
    4.1460   -0.8070   -0.4260 C   0  0  0  0  0  0  0  0  0  0  0  0
    4.8730   -1.3730   -0.9960 H   0  0  0  0  0  0  0  0  0  0  0  0
   -1.8700   -1.1370    0.8780 C   0  0  0  0  0  0  0  0  0  0  0  0
    0.5690   -1.1660    0.7710 C   0  0  0  0  0  0  0  0  0  0  0  0
    0.5440   -2.2160    1.0560 H   0  0  0  0  0  0  0  0  0  0  0  0
    1.9090   -0.6080    0.5130 C   0  0  0  0  0  0  0  0  0  0  0  0
   -0.5680   -0.4700    0.6200 C   0  0  0  0  0  0  0  0  0  0  0  0
   -0.5660    0.5670    0.3090 H   0  0  0  0  0  0  0  0  0  0  0  0
   -5.5250   -0.2190    0.9300 C   0  0  0  0  0  0  0  0  0  0  0  0
   -6.3670   -0.4800    1.5610 H   0  0  0  0  0  0  0  0  0  0  0  0
   -4.5210    0.9250   -0.9410 C   0  0  0  0  0  0  0  0  0  0  0  0
   -4.6620    1.5990   -1.7810 H   0  0  0  0  0  0  0  0  0  0  0  0
    2.8730   -1.3530   -0.1950 C   0  0  0  0  0  0  0  0  0  0  0  0
    4.4870    0.4630    0.0610 C   0  0  0  0  0  0  0  0  0  0  0  0
    3.5400    1.1760    0.8120 C   0  0  0  0  0  0  0  0  0  0  0  0
    2.2590    0.6530    1.0140 C   0  0  0  0  0  0  0  0  0  0  0  0
    1.5440    1.2370    1.5890 H   0  0  0  0  0  0  0  0  0  0  0  0
   -5.6420    0.6560   -0.1440 C   0  0  0  0  0  0  0  0  0  0  0  0
   -1.9500   -2.1770    1.5350 O   0  0  0  0  0  0  0  0  0  0  0  0
   -4.2560   -1.6830    2.2600 O   0  0  0  0  0  0  0  0  0  0  0  0
   -3.3740   -2.1340    2.2300 H   0  0  0  0  0  0  0  0  0  0  0  0
   -2.1680    0.5270   -1.4620 O   0  0  0  0  0  0  0  0  0  0  0  0
    5.6900    1.0790   -0.1660 O   0  0  0  0  0  0  0  0  0  0  0  0
    2.4690   -2.5900   -0.6400 O   0  0  0  0  0  0  0  0  0  0  0  0
    3.7400    2.4260    1.3440 O   0  0  0  0  0  0  0  0  0  0  0  0
   -6.7860    1.3000   -0.5340 O   0  0  0  0  0  0  0  0  0  0  0  0
   -2.3270    1.2480   -2.6780 C   0  0  0  0  0  0  0  0  0  0  0  0
   -1.3660    1.2320   -3.2020 H   0  0  0  0  0  0  0  0  0  0  0  0
   -2.5810    2.2940   -2.4830 H   0  0  0  0  0  0  0  0  0  0  0  0
   -3.0680    0.7720   -3.3290 H   0  0  0  0  0  0  0  0  0  0  0  0
    3.4280   -3.4090   -1.2940 C   0  0  0  0  0  0  0  0  0  0  0  0
    2.9480   -4.3630   -1.5310 H   0  0  0  0  0  0  0  0  0  0  0  0
    4.2820   -3.6200   -0.6410 H   0  0  0  0  0  0  0  0  0  0  0  0
    3.7520   -2.9580   -2.2380 H   0  0  0  0  0  0  0  0  0  0  0  0
    4.9280    2.5380    2.1260 C   0  0  0  0  0  0  0  0  0  0  0  0
    4.7370    3.2720    2.9150 H   0  0  0  0  0  0  0  0  0  0  0  0
    5.7500    2.9190    1.5140 H   0  0  0  0  0  0  0  0  0  0  0  0
    5.2070    1.5950    2.6110 H   0  0  0  0  0  0  0  0  0  0  0  0
    6.6490    0.3980   -0.9640 C   0  0  0  0  0  0  0  0  0  0  0  0
    7.5290    1.0430   -1.0500 H   0  0  0  0  0  0  0  0  0  0  0  0
    6.2680    0.2190   -1.9740 H   0  0  0  0  0  0  0  0  0  0  0  0
    6.9680   -0.5350   -0.4870 H   0  0  0  0  0  0  0  0  0  0  0  0
   -7.9550    1.0620    0.2410 C   0  0  0  0  0  0  0  0  0  0  0  0
   -8.7680    1.6530   -0.1910 H   0  0  0  0  0  0  0  0  0  0  0  0
   -7.8170    1.3920    1.2760 H   0  0  0  0  0  0  0  0  0  0  0  0
   -8.2490    0.0080    0.1970 H   0  0  0  0  0  0  0  0  0  0  0  0
  1  2  2  0  0  0  0
  1  3  1  0  0  0  0
  1  6  1  0  0  0  0
  2 12  1  0  0  0  0
  2 23  1  0  0  0  0
  3 14  2  0  0  0  0
  3 25  1  0  0  0  0
  4  5  1  0  0  0  0
  4 16  2  0  0  0  0
  4 17  1  0  0  0  0
  6 10  1  0  0  0  0
  6 22  2  0  0  0  0
  7  8  1  0  0  0  0
  7  9  1  0  0  0  0
  7 10  2  0  0  0  0
  9 16  1  0  0  0  0
  9 19  2  0  0  0  0
 10 11  1  0  0  0  0
 12 13  1  0  0  0  0
 12 21  2  0  0  0  0
 14 15  1  0  0  0  0
 14 21  1  0  0  0  0
 16 27  1  0  0  0  0
 17 18  2  0  0  0  0
 17 26  1  0  0  0  0
 18 19  1  0  0  0  0
 18 28  1  0  0  0  0
 19 20  1  0  0  0  0
 21 29  1  0  0  0  0
 23 24  1  0  0  0  0
 25 30  1  0  0  0  0
 26 42  1  0  0  0  0
 27 34  1  0  0  0  0
 28 38  1  0  0  0  0
 29 46  1  0  0  0  0
 30 31  1  0  0  0  0
 30 32  1  0  0  0  0
 30 33  1  0  0  0  0
 34 35  1  0  0  0  0
 34 36  1  0  0  0  0
 34 37  1  0  0  0  0
 38 39  1  0  0  0  0
 38 40  1  0  0  0  0
 38 41  1  0  0  0  0
 42 43  1  0  0  0  0
 42 44  1  0  0  0  0
 42 45  1  0  0  0  0
 46 47  1  0  0  0  0
 46 48  1  0  0  0  0
 46 49  1  0  0  0  0
M  END
>  <IDNUMBER>
AC-542/21143022

>  <NAME>
Rubone

>  <ADD_INFO>
http://www.specs.net/enter.php?specsid=AC-542/21143022

>  <H_ACCEPTORS>
1

>  <H_DONORS>
1

>  <ROTATABLE_BONDS>
8

>  <LOGP>
3.8399999

>  <LOGS>
-4.6300001

>  <TPSA>
83.449997

>  <PRICE>
N07

$$$$
AC-776/21184002
  MOE2011           3D

 70 74  0  0  1  0  0  0  0  0999 V2000
    3.3230   -1.2940   -1.3450 C   0  0  0  0  0  0  0  0  0  0  0  0
    3.0230   -0.0190   -1.0380 C   0  0  0  0  0  0  0  0  0  0  0  0
    4.6920   -1.7970   -1.0180 C   0  0  0  0  0  0  0  0  0  0  0  0
    5.5750   -0.8850   -0.2460 C   0  0  0  0  0  0  0  0  0  0  0  0
    3.8880    0.8660   -0.4250 O   0  0  0  0  0  0  0  0  0  0  0  0
    5.1120    0.4110   -0.0070 C   0  0  0  0  0  0  0  0  0  0  0  0
   -1.8230   -0.0530   -0.6840 O   0  0  0  0  0  0  0  0  0  0  0  0
    6.8400   -1.2670    0.2370 C   0  0  0  0  0  0  0  0  0  0  0  0
   -3.0050    0.3540   -1.3950 C   0  0  3  0  0  0  0  0  0  0  0  0
   -1.9520    2.4060   -2.2010 O   0  0  0  0  0  0  0  0  0  0  0  0
   -0.7100    0.5880   -1.1630 C   0  0  0  0  0  0  0  0  0  0  0  0
   -3.0840    1.8940   -1.4640 C   0  0  3  0  0  0  0  0  0  0  0  0
    1.7100    0.5840   -1.3430 C   0  0  0  0  0  0  0  0  0  0  0  0
   -4.2360   -0.3090   -0.8060 C   0  0  0  0  0  0  0  0  0  0  0  0
   -0.7760    1.7670   -1.9060 C   0  0  0  0  0  0  0  0  0  0  0  0
    5.8910    1.3390    0.6900 C   0  0  0  0  0  0  0  0  0  0  0  0
    5.4920    2.3360    0.8460 H   0  0  0  0  0  0  0  0  0  0  0  0
    0.5230    0.0110   -0.8620 C   0  0  0  0  0  0  0  0  0  0  0  0
    0.5480   -0.8950   -0.2620 H   0  0  0  0  0  0  0  0  0  0  0  0
    7.6090   -0.3280    0.9400 C   0  0  0  0  0  0  0  0  0  0  0  0
    8.5900   -0.5790    1.3330 H   0  0  0  0  0  0  0  0  0  0  0  0
   -4.2630   -0.7940    0.5080 C   0  0  0  0  0  0  0  0  0  0  0  0
   -3.3840   -0.7220    1.1430 H   0  0  0  0  0  0  0  0  0  0  0  0
   -5.4310   -1.3600    1.0290 C   0  0  0  0  0  0  0  0  0  0  0  0
    5.0520   -2.9080   -1.3870 O   0  0  0  0  0  0  0  0  0  0  0  0
    7.1440    0.9720    1.1660 C   0  0  0  0  0  0  0  0  0  0  0  0
   -6.5850   -1.4970    0.2460 C   0  0  0  0  0  0  0  0  0  0  0  0
    1.6340    1.7620   -2.1010 C   0  0  0  0  0  0  0  0  0  0  0  0
    2.5390    2.2300   -2.4820 H   0  0  0  0  0  0  0  0  0  0  0  0
   -5.3990   -0.4290   -1.5830 C   0  0  0  0  0  0  0  0  0  0  0  0
   -5.4140   -0.0620   -2.6080 H   0  0  0  0  0  0  0  0  0  0  0  0
    0.3950    2.3490   -2.3830 C   0  0  0  0  0  0  0  0  0  0  0  0
    0.3500    3.2630   -2.9680 H   0  0  0  0  0  0  0  0  0  0  0  0
    2.4270   -2.1020   -2.0290 O   0  0  0  0  0  0  0  0  0  0  0  0
   -6.5590   -1.0200   -1.0650 C   0  0  0  0  0  0  0  0  0  0  0  0
   -7.4240   -1.0880   -1.7170 H   0  0  0  0  0  0  0  0  0  0  0  0
    7.2490   -2.5520    0.0050 O   0  0  0  0  0  0  0  0  0  0  0  0
   -5.3900   -1.8300    2.3200 O   0  0  0  0  0  0  0  0  0  0  0  0
   -3.1590    2.6140   -0.1060 C   0  0  0  0  0  0  0  0  0  0  0  0
   -2.9660    3.6850   -0.2510 H   0  0  0  0  0  0  0  0  0  0  0  0
   -2.3940    2.2370    0.5830 H   0  0  0  0  0  0  0  0  0  0  0  0
    8.0060    1.7740    1.8620 O   0  0  0  0  0  0  0  0  0  0  0  0
   -7.6620   -2.0950    0.8470 O   0  0  0  0  0  0  0  0  0  0  0  0
   -4.4540    2.4540    0.4690 O   0  0  0  0  0  0  0  0  0  0  0  0
    2.1790   -3.3460   -1.3800 C   0  0  0  0  0  0  0  0  0  0  0  0
    1.1970   -3.7020   -1.7060 H   0  0  0  0  0  0  0  0  0  0  0  0
    2.1560   -3.2450   -0.2890 H   0  0  0  0  0  0  0  0  0  0  0  0
    2.9190   -4.0930   -1.6830 H   0  0  0  0  0  0  0  0  0  0  0  0
    8.5420   -2.9420    0.4450 C   0  0  0  0  0  0  0  0  0  0  0  0
    8.6970   -3.9830    0.1460 H   0  0  0  0  0  0  0  0  0  0  0  0
    8.6180   -2.8940    1.5360 H   0  0  0  0  0  0  0  0  0  0  0  0
    9.3220   -2.3400   -0.0340 H   0  0  0  0  0  0  0  0  0  0  0  0
   -5.8740   -0.8270    3.2140 C   0  0  0  0  0  0  0  0  0  0  0  0
   -5.8210   -1.2310    4.2300 H   0  0  0  0  0  0  0  0  0  0  0  0
   -6.9180   -0.5720    3.0060 H   0  0  0  0  0  0  0  0  0  0  0  0
   -5.2480    0.0720    3.1760 H   0  0  0  0  0  0  0  0  0  0  0  0
   -8.8390   -2.2500    0.0660 C   0  0  0  0  0  0  0  0  0  0  0  0
   -9.5900   -2.7470    0.6880 H   0  0  0  0  0  0  0  0  0  0  0  0
   -8.6550   -2.8880   -0.8050 H   0  0  0  0  0  0  0  0  0  0  0  0
   -9.2450   -1.2780   -0.2330 H   0  0  0  0  0  0  0  0  0  0  0  0
    7.5930    3.1130    2.1040 C   0  0  0  0  0  0  0  0  0  0  0  0
    8.3920    3.6150    2.6580 H   0  0  0  0  0  0  0  0  0  0  0  0
    6.6900    3.1410    2.7220 H   0  0  0  0  0  0  0  0  0  0  0  0
    7.4470    3.6570    1.1640 H   0  0  0  0  0  0  0  0  0  0  0  0
   -4.5330    3.0400    1.7610 C   0  0  0  0  0  0  0  0  0  0  0  0
   -5.5480    2.8970    2.1410 H   0  0  0  0  0  0  0  0  0  0  0  0
   -4.3250    4.1130    1.7100 H   0  0  0  0  0  0  0  0  0  0  0  0
   -3.8330    2.5520    2.4450 H   0  0  0  0  0  0  0  0  0  0  0  0
   -2.8950   -0.0450   -2.4160 H   0  0  0  0  0  0  0  0  0  0  0  0
   -3.9730    2.1710   -2.0440 H   0  0  0  0  0  0  0  0  0  0  0  0
  1  2  2  0  0  0  0
  1  3  1  0  0  0  0
  1 34  1  0  0  0  0
  2  5  1  0  0  0  0
  2 13  1  0  0  0  0
  3  4  1  0  0  0  0
  3 25  2  0  0  0  0
  4  6  2  0  0  0  0
  4  8  1  0  0  0  0
  5  6  1  0  0  0  0
  6 16  1  0  0  0  0
  7  9  1  0  0  0  0
  7 11  1  0  0  0  0
  8 20  2  0  0  0  0
  8 37  1  0  0  0  0
  9 12  1  0  0  0  0
  9 14  1  0  0  0  0
  9 69  1  0  0  0  0
 10 12  1  0  0  0  0
 10 15  1  0  0  0  0
 11 15  1  0  0  0  0
 11 18  2  0  0  0  0
 12 39  1  0  0  0  0
 12 70  1  0  0  0  0
 13 18  1  0  0  0  0
 13 28  2  0  0  0  0
 14 22  2  0  0  0  0
 14 30  1  0  0  0  0
 15 32  2  0  0  0  0
 16 17  1  0  0  0  0
 16 26  2  0  0  0  0
 18 19  1  0  0  0  0
 20 21  1  0  0  0  0
 20 26  1  0  0  0  0
 22 23  1  0  0  0  0
 22 24  1  0  0  0  0
 24 27  2  0  0  0  0
 24 38  1  0  0  0  0
 26 42  1  0  0  0  0
 27 35  1  0  0  0  0
 27 43  1  0  0  0  0
 28 29  1  0  0  0  0
 28 32  1  0  0  0  0
 30 31  1  0  0  0  0
 30 35  2  0  0  0  0
 32 33  1  0  0  0  0
 34 45  1  0  0  0  0
 35 36  1  0  0  0  0
 37 49  1  0  0  0  0
 38 53  1  0  0  0  0
 39 40  1  0  0  0  0
 39 41  1  0  0  0  0
 39 44  1  0  0  0  0
 42 61  1  0  0  0  0
 43 57  1  0  0  0  0
 44 65  1  0  0  0  0
 45 46  1  0  0  0  0
 45 47  1  0  0  0  0
 45 48  1  0  0  0  0
 49 50  1  0  0  0  0
 49 51  1  0  0  0  0
 49 52  1  0  0  0  0
 53 54  1  0  0  0  0
 53 55  1  0  0  0  0
 53 56  1  0  0  0  0
 57 58  1  0  0  0  0
 57 59  1  0  0  0  0
 57 60  1  0  0  0  0
 61 62  1  0  0  0  0
 61 63  1  0  0  0  0
 61 64  1  0  0  0  0
 65 66  1  0  0  0  0
 65 67  1  0  0  0  0
 65 68  1  0  0  0  0
M  END
>  <IDNUMBER>
AC-776/21184002

>  <NAME>
Silybin, derivative of

>  <ADD_INFO>
http://www.specs.net/enter.php?specsid=AC-776/21184002

>  <H_ACCEPTORS>
3

>  <H_DONORS>
0

>  <ROTATABLE_BONDS>
9

>  <LOGP>
4.8000002

>  <LOGS>
-7.3099999

>  <TPSA>
100.14

>  <PRICE>
N05

$$$$
AC-776/21184005
  MOE2011           3D

 49 52  0  0  0  0  0  0  0  0999 V2000
    0.9520   -1.1880   -0.4600 C   0  0  0  0  0  0  0  0  0  0  0  0
    0.1390    1.1550   -0.2040 C   0  0  0  0  0  0  0  0  0  0  0  0
    1.2010    0.2420   -0.3370 C   0  0  0  0  0  0  0  0  0  0  0  0
    0.3830    2.5310   -0.0830 C   0  0  0  0  0  0  0  0  0  0  0  0
   -1.1310    0.6230   -0.1860 O   0  0  0  0  0  0  0  0  0  0  0  0
   -0.7930    3.4270    0.0670 C   0  0  0  0  0  0  0  0  0  0  0  0
   -2.2170    1.4610   -0.0380 C   0  0  0  0  0  0  0  0  0  0  0  0
   -2.1190    2.7880    0.0930 C   0  0  0  0  0  0  0  0  0  0  0  0
   -2.9680    3.4460    0.2320 H   0  0  0  0  0  0  0  0  0  0  0  0
    1.3670   -2.2600    0.4470 C   0  0  0  0  0  0  0  0  0  0  0  0
    0.3110   -1.8650   -1.4100 C   0  0  0  0  0  0  0  0  0  0  0  0
   -0.1640   -1.4640   -2.2930 H   0  0  0  0  0  0  0  0  0  0  0  0
    1.7040    3.0180   -0.1040 C   0  0  0  0  0  0  0  0  0  0  0  0
    2.5120    0.7340   -0.3330 C   0  0  0  0  0  0  0  0  0  0  0  0
    2.7600    2.1080   -0.2380 C   0  0  0  0  0  0  0  0  0  0  0  0
    3.7880    2.4490   -0.2950 H   0  0  0  0  0  0  0  0  0  0  0  0
    0.2180   -3.2380   -1.3140 O   0  0  0  0  0  0  0  0  0  0  0  0
    0.9100   -3.5950   -0.0970 C   0  0  0  0  0  0  0  0  0  0  0  0
   -0.7290    4.6450    0.1730 O   0  0  0  0  0  0  0  0  0  0  0  0
    1.9700   -2.0850    1.4960 O   0  0  0  0  0  0  0  0  0  0  0  0
   -3.5180    0.7610   -0.0070 C   0  0  0  0  0  0  0  0  0  0  0  0
    1.8840    4.3710   -0.0040 O   0  0  0  0  0  0  0  0  0  0  0  0
    3.5470   -0.1520   -0.5170 O   0  0  0  0  0  0  0  0  0  0  0  0
    2.0950   -4.4870   -0.4380 C   0  0  0  0  0  0  0  0  0  0  0  0
    2.6570   -4.7680    0.4580 H   0  0  0  0  0  0  0  0  0  0  0  0
    2.7850   -3.9800   -1.1230 H   0  0  0  0  0  0  0  0  0  0  0  0
    1.7630   -5.3990   -0.9450 H   0  0  0  0  0  0  0  0  0  0  0  0
   -0.0720   -4.2700    0.8510 C   0  0  0  0  0  0  0  0  0  0  0  0
    0.4040   -4.5390    1.7990 H   0  0  0  0  0  0  0  0  0  0  0  0
   -0.4910   -5.1750    0.3980 H   0  0  0  0  0  0  0  0  0  0  0  0
   -0.9190   -3.6100    1.0750 H   0  0  0  0  0  0  0  0  0  0  0  0
   -4.6590    1.2910   -0.6310 C   0  0  0  0  0  0  0  0  0  0  0  0
   -4.6130    2.2380   -1.1630 H   0  0  0  0  0  0  0  0  0  0  0  0
   -3.6280   -0.4830    0.6350 C   0  0  0  0  0  0  0  0  0  0  0  0
   -2.7650   -0.9300    1.1260 H   0  0  0  0  0  0  0  0  0  0  0  0
    4.5130   -0.0880    0.5320 C   0  0  0  0  0  0  0  0  0  0  0  0
    5.0770   -1.0260    0.5230 H   0  0  0  0  0  0  0  0  0  0  0  0
    4.0450    0.0150    1.5170 H   0  0  0  0  0  0  0  0  0  0  0  0
    5.2180    0.7290    0.3540 H   0  0  0  0  0  0  0  0  0  0  0  0
    3.2100    4.8800    0.0310 C   0  0  0  0  0  0  0  0  0  0  0  0
    3.1480    5.9660    0.1490 H   0  0  0  0  0  0  0  0  0  0  0  0
    3.7340    4.6780   -0.9090 H   0  0  0  0  0  0  0  0  0  0  0  0
    3.7650    4.4840    0.8880 H   0  0  0  0  0  0  0  0  0  0  0  0
   -5.8780    0.6060   -0.5970 C   0  0  0  0  0  0  0  0  0  0  0  0
   -6.7530    1.0310   -1.0830 H   0  0  0  0  0  0  0  0  0  0  0  0
   -4.8450   -1.1690    0.6670 C   0  0  0  0  0  0  0  0  0  0  0  0
   -4.9120   -2.1290    1.1710 H   0  0  0  0  0  0  0  0  0  0  0  0
   -5.9700   -0.6230    0.0520 C   0  0  0  0  0  0  0  0  0  0  0  0
   -6.9160   -1.1560    0.0770 H   0  0  0  0  0  0  0  0  0  0  0  0
  1  3  1  0  0  0  0
  1 10  1  0  0  0  0
  1 11  2  0  0  0  0
  2  3  2  0  0  0  0
  2  4  1  0  0  0  0
  2  5  1  0  0  0  0
  3 14  1  0  0  0  0
  4  6  1  0  0  0  0
  4 13  2  0  0  0  0
  5  7  1  0  0  0  0
  6  8  1  0  0  0  0
  6 19  2  0  0  0  0
  7  8  2  0  0  0  0
  7 21  1  0  0  0  0
  8  9  1  0  0  0  0
 10 18  1  0  0  0  0
 10 20  2  0  0  0  0
 11 12  1  0  0  0  0
 11 17  1  0  0  0  0
 13 15  1  0  0  0  0
 13 22  1  0  0  0  0
 14 15  2  0  0  0  0
 14 23  1  0  0  0  0
 15 16  1  0  0  0  0
 17 18  1  0  0  0  0
 18 24  1  0  0  0  0
 18 28  1  0  0  0  0
 21 32  2  0  0  0  0
 21 34  1  0  0  0  0
 22 40  1  0  0  0  0
 23 36  1  0  0  0  0
 24 25  1  0  0  0  0
 24 26  1  0  0  0  0
 24 27  1  0  0  0  0
 28 29  1  0  0  0  0
 28 30  1  0  0  0  0
 28 31  1  0  0  0  0
 32 33  1  0  0  0  0
 32 44  1  0  0  0  0
 34 35  1  0  0  0  0
 34 46  2  0  0  0  0
 36 37  1  0  0  0  0
 36 38  1  0  0  0  0
 36 39  1  0  0  0  0
 40 41  1  0  0  0  0
 40 42  1  0  0  0  0
 40 43  1  0  0  0  0
 44 45  1  0  0  0  0
 44 48  2  0  0  0  0
 46 47  1  0  0  0  0
 46 48  1  0  0  0  0
 48 49  1  0  0  0  0
M  END
>  <IDNUMBER>
AC-776/21184005

>  <NAME>
Tachrosin

>  <ADD_INFO>
http://www.specs.net/enter.php?specsid=AC-776/21184005

>  <H_ACCEPTORS>
3

>  <H_DONORS>
0

>  <ROTATABLE_BONDS>
4

>  <LOGP>
3.77

>  <LOGS>
-5.2800002

>  <TPSA>
71.059998

>  <PRICE>
N05

$$$$
AC-776/21258006
  MOE2011           3D

 61 64  0  0  0  0  0  0  0  0999 V2000
   -1.9910    1.3110   -0.3970 C   0  0  0  0  0  0  0  0  0  0  0  0
   -1.3140    0.1560   -0.2420 C   0  0  0  0  0  0  0  0  0  0  0  0
   -3.4820    1.2750   -0.2830 C   0  0  0  0  0  0  0  0  0  0  0  0
   -4.1020   -0.0530   -0.0970 C   0  0  0  0  0  0  0  0  0  0  0  0
   -1.9040   -1.0790   -0.0430 O   0  0  0  0  0  0  0  0  0  0  0  0
   -3.2690   -1.1600    0.0030 C   0  0  0  0  0  0  0  0  0  0  0  0
   -5.4860   -0.2500   -0.0240 C   0  0  0  0  0  0  0  0  0  0  0  0
    0.1610    0.0660   -0.3080 C   0  0  0  0  0  0  0  0  0  0  0  0
    2.3710    0.7490    0.3930 C   0  0  0  0  0  0  0  0  0  0  0  0
   -3.8060   -2.4420    0.1570 C   0  0  0  0  0  0  0  0  0  0  0  0
   -3.1430   -3.3010    0.2340 H   0  0  0  0  0  0  0  0  0  0  0  0
   -6.0340   -1.5320    0.1100 C   0  0  0  0  0  0  0  0  0  0  0  0
   -7.1130   -1.6330    0.1390 H   0  0  0  0  0  0  0  0  0  0  0  0
   -6.3850    0.8130   -0.1450 O   0  0  0  0  0  0  0  0  0  0  0  0
    0.9850    0.8880    0.4740 C   0  0  0  0  0  0  0  0  0  0  0  0
    0.5590    1.6320    1.1410 H   0  0  0  0  0  0  0  0  0  0  0  0
    3.1650    1.5840    1.2010 O   0  0  0  0  0  0  0  0  0  0  0  0
   -6.6440    1.4280    1.0750 C   0  0  0  0  0  0  0  0  0  0  0  0
    3.9790    2.5630    0.6400 C   0  0  0  0  0  0  0  0  0  0  0  0
   -4.1630    2.2920   -0.3420 O   0  0  0  0  0  0  0  0  0  0  0  0
    2.9570   -0.2340   -0.4050 C   0  0  0  0  0  0  0  0  0  0  0  0
   -5.1880   -2.6350    0.2070 C   0  0  0  0  0  0  0  0  0  0  0  0
    4.3150   -0.3730   -0.4880 O   0  0  0  0  0  0  0  0  0  0  0  0
    0.7600   -0.8970   -1.1420 C   0  0  0  0  0  0  0  0  0  0  0  0
    0.1420   -1.5480   -1.7580 H   0  0  0  0  0  0  0  0  0  0  0  0
   -1.3350    2.5140   -0.6080 O   0  0  0  0  0  0  0  0  0  0  0  0
   -6.2460    1.0690    2.1760 O   0  0  0  0  0  0  0  0  0  0  0  0
    4.9050    3.0580    1.2760 O   0  0  0  0  0  0  0  0  0  0  0  0
    2.1500   -1.0430   -1.1970 C   0  0  0  0  0  0  0  0  0  0  0  0
    2.5920   -1.7900   -1.8500 H   0  0  0  0  0  0  0  0  0  0  0  0
    4.8070   -1.1670    0.5990 C   0  0  0  0  0  0  0  0  0  0  0  0
    4.5220   -0.7420    1.5700 H   0  0  0  0  0  0  0  0  0  0  0  0
    4.3960   -2.1830    0.5400 H   0  0  0  0  0  0  0  0  0  0  0  0
   -5.5750   -3.9390    0.3470 O   0  0  0  0  0  0  0  0  0  0  0  0
    6.3090   -1.2090    0.5000 C   0  0  0  0  0  0  0  0  0  0  0  0
   -7.5290    2.6150    0.8420 C   0  0  0  0  0  0  0  0  0  0  0  0
   -7.0410    3.3140    0.1580 H   0  0  0  0  0  0  0  0  0  0  0  0
   -7.7060    3.1270    1.7920 H   0  0  0  0  0  0  0  0  0  0  0  0
   -8.4900    2.2870    0.4360 H   0  0  0  0  0  0  0  0  0  0  0  0
    3.6340    3.0000   -0.7570 C   0  0  0  0  0  0  0  0  0  0  0  0
    3.9450    2.2520   -1.4870 H   0  0  0  0  0  0  0  0  0  0  0  0
    4.1700    3.9300   -0.9740 H   0  0  0  0  0  0  0  0  0  0  0  0
    2.5660    3.2190   -0.8390 H   0  0  0  0  0  0  0  0  0  0  0  0
   -1.7980    3.2160   -1.7580 C   0  0  0  0  0  0  0  0  0  0  0  0
   -0.9930    3.8800   -2.0880 H   0  0  0  0  0  0  0  0  0  0  0  0
   -2.6590    3.8410   -1.5080 H   0  0  0  0  0  0  0  0  0  0  0  0
   -2.0370    2.5390   -2.5850 H   0  0  0  0  0  0  0  0  0  0  0  0
   -6.9730   -4.1910    0.4250 C   0  0  0  0  0  0  0  0  0  0  0  0
   -7.1120   -5.2690    0.5510 H   0  0  0  0  0  0  0  0  0  0  0  0
   -7.4780   -3.8950   -0.5010 H   0  0  0  0  0  0  0  0  0  0  0  0
   -7.4170   -3.6940    1.2940 H   0  0  0  0  0  0  0  0  0  0  0  0
    6.9570   -2.3020   -0.0910 C   0  0  0  0  0  0  0  0  0  0  0  0
    6.3820   -3.1400   -0.4780 H   0  0  0  0  0  0  0  0  0  0  0  0
    7.0780   -0.1330    0.9690 C   0  0  0  0  0  0  0  0  0  0  0  0
    6.5950    0.7340    1.4150 H   0  0  0  0  0  0  0  0  0  0  0  0
    8.3490   -2.3270   -0.1940 C   0  0  0  0  0  0  0  0  0  0  0  0
    8.8440   -3.1790   -0.6510 H   0  0  0  0  0  0  0  0  0  0  0  0
    8.4690   -0.1600    0.8630 C   0  0  0  0  0  0  0  0  0  0  0  0
    9.0560    0.6780    1.2300 H   0  0  0  0  0  0  0  0  0  0  0  0
    9.1040   -1.2570    0.2840 C   0  0  0  0  0  0  0  0  0  0  0  0
   10.1880   -1.2760    0.2010 H   0  0  0  0  0  0  0  0  0  0  0  0
  1  2  2  0  0  0  0
  1  3  1  0  0  0  0
  1 26  1  0  0  0  0
  2  5  1  0  0  0  0
  2  8  1  0  0  0  0
  3  4  1  0  0  0  0
  3 20  2  0  0  0  0
  4  6  2  0  0  0  0
  4  7  1  0  0  0  0
  5  6  1  0  0  0  0
  6 10  1  0  0  0  0
  7 12  2  0  0  0  0
  7 14  1  0  0  0  0
  8 15  1  0  0  0  0
  8 24  2  0  0  0  0
  9 15  2  0  0  0  0
  9 17  1  0  0  0  0
  9 21  1  0  0  0  0
 10 11  1  0  0  0  0
 10 22  2  0  0  0  0
 12 13  1  0  0  0  0
 12 22  1  0  0  0  0
 14 18  1  0  0  0  0
 15 16  1  0  0  0  0
 17 19  1  0  0  0  0
 18 27  2  0  0  0  0
 18 36  1  0  0  0  0
 19 28  2  0  0  0  0
 19 40  1  0  0  0  0
 21 23  1  0  0  0  0
 21 29  2  0  0  0  0
 22 34  1  0  0  0  0
 23 31  1  0  0  0  0
 24 25  1  0  0  0  0
 24 29  1  0  0  0  0
 26 44  1  0  0  0  0
 29 30  1  0  0  0  0
 31 32  1  0  0  0  0
 31 33  1  0  0  0  0
 31 35  1  0  0  0  0
 34 48  1  0  0  0  0
 35 52  2  0  0  0  0
 35 54  1  0  0  0  0
 36 37  1  0  0  0  0
 36 38  1  0  0  0  0
 36 39  1  0  0  0  0
 40 41  1  0  0  0  0
 40 42  1  0  0  0  0
 40 43  1  0  0  0  0
 44 45  1  0  0  0  0
 44 46  1  0  0  0  0
 44 47  1  0  0  0  0
 48 49  1  0  0  0  0
 48 50  1  0  0  0  0
 48 51  1  0  0  0  0
 52 53  1  0  0  0  0
 52 56  1  0  0  0  0
 54 55  1  0  0  0  0
 54 58  2  0  0  0  0
 56 57  1  0  0  0  0
 56 60  2  0  0  0  0
 58 59  1  0  0  0  0
 58 60  1  0  0  0  0
 60 61  1  0  0  0  0
M  END
>  <IDNUMBER>
AC-776/21258006

>  <NAME>
2-[3-(acetyloxy)-4-(benzyloxy)phenyl]-3,7-dimethoxy-4-oxo-4H-chromen-5-yl acetate

>  <ADD_INFO>
http://www.specs.net/enter.php?specsid=AC-776/21258006

>  <H_ACCEPTORS>
4

>  <H_DONORS>
0

>  <ROTATABLE_BONDS>
10

>  <LOGP>
3.8599999

>  <LOGS>
-6.1700001

>  <TPSA>
106.59

>  <PRICE>
N06

$$$$
AC-776/21258022
  MOE2011           3D

 45 47  0  0  0  0  0  0  0  0999 V2000
    0.4900   -1.0340    0.1640 C   0  0  0  0  0  0  0  0  0  0  0  0
    0.0930    0.2520    0.0500 C   0  0  0  0  0  0  0  0  0  0  0  0
    1.1660    1.2770   -0.0570 C   0  0  0  0  0  0  0  0  0  0  0  0
    2.5550    0.8130   -0.0120 C   0  0  0  0  0  0  0  0  0  0  0  0
    1.8030   -1.4650    0.2480 O   0  0  0  0  0  0  0  0  0  0  0  0
    2.8040   -0.5400    0.1420 C   0  0  0  0  0  0  0  0  0  0  0  0
    3.6200    1.7110   -0.1200 C   0  0  0  0  0  0  0  0  0  0  0  0
   -0.5100   -2.1260    0.2460 C   0  0  0  0  0  0  0  0  0  0  0  0
    4.1180   -1.0030    0.1910 C   0  0  0  0  0  0  0  0  0  0  0  0
    4.3150   -2.0660    0.3130 H   0  0  0  0  0  0  0  0  0  0  0  0
    4.9360    1.2550   -0.0750 C   0  0  0  0  0  0  0  0  0  0  0  0
    5.7340    1.9850   -0.1640 H   0  0  0  0  0  0  0  0  0  0  0  0
   -1.3210    0.6700    0.0320 C   0  0  0  0  0  0  0  0  0  0  0  0
    0.9560    2.4810   -0.1820 O   0  0  0  0  0  0  0  0  0  0  0  0
    5.1900   -0.1100    0.0810 C   0  0  0  0  0  0  0  0  0  0  0  0
   -0.6420   -2.8470    1.2230 O   0  0  0  0  0  0  0  0  0  0  0  0
   -1.8960    1.1710   -1.1410 C   0  0  0  0  0  0  0  0  0  0  0  0
   -1.3040    1.2780   -2.0470 H   0  0  0  0  0  0  0  0  0  0  0  0
   -2.1150    0.5550    1.1820 C   0  0  0  0  0  0  0  0  0  0  0  0
   -1.6920    0.1770    2.1110 H   0  0  0  0  0  0  0  0  0  0  0  0
    3.4180    3.0570   -0.2730 O   0  0  0  0  0  0  0  0  0  0  0  0
    2.4410    3.2080   -0.2790 H   0  0  0  0  0  0  0  0  0  0  0  0
   -1.1710   -2.2160   -0.9360 O   0  0  0  0  0  0  0  0  0  0  0  0
   -4.0410    1.3990   -0.0210 C   0  0  0  0  0  0  0  0  0  0  0  0
   -3.2460    1.5310   -1.1630 C   0  0  0  0  0  0  0  0  0  0  0  0
   -3.6840    1.9130   -2.0820 H   0  0  0  0  0  0  0  0  0  0  0  0
   -3.4670    0.9160    1.1550 C   0  0  0  0  0  0  0  0  0  0  0  0
   -4.0420    0.8040    2.0680 H   0  0  0  0  0  0  0  0  0  0  0  0
    6.4250   -0.6970    0.1410 O   0  0  0  0  0  0  0  0  0  0  0  0
   -5.3480    1.7710   -0.1860 O   0  0  0  0  0  0  0  0  0  0  0  0
   -2.1460   -3.2630   -1.0320 C   0  0  0  0  0  0  0  0  0  0  0  0
   -2.2440   -3.5150   -2.0930 H   0  0  0  0  0  0  0  0  0  0  0  0
   -1.8060   -4.1690   -0.5160 H   0  0  0  0  0  0  0  0  0  0  0  0
    7.5510    0.1640    0.0270 C   0  0  0  0  0  0  0  0  0  0  0  0
    8.4520   -0.4540    0.0920 H   0  0  0  0  0  0  0  0  0  0  0  0
    7.5820    0.8850    0.8510 H   0  0  0  0  0  0  0  0  0  0  0  0
    7.5640    0.6710   -0.9430 H   0  0  0  0  0  0  0  0  0  0  0  0
   -6.2110    1.6060    0.9330 C   0  0  0  0  0  0  0  0  0  0  0  0
   -7.2140    1.9230    0.6310 H   0  0  0  0  0  0  0  0  0  0  0  0
   -5.8980    2.2420    1.7680 H   0  0  0  0  0  0  0  0  0  0  0  0
   -6.2690    0.5550    1.2350 H   0  0  0  0  0  0  0  0  0  0  0  0
   -3.4820   -2.7870   -0.4940 C   0  0  0  0  0  0  0  0  0  0  0  0
   -3.8110   -1.8860   -1.0220 H   0  0  0  0  0  0  0  0  0  0  0  0
   -3.4080   -2.5280    0.5670 H   0  0  0  0  0  0  0  0  0  0  0  0
   -4.2450   -3.5620   -0.6110 H   0  0  0  0  0  0  0  0  0  0  0  0
  1  2  2  0  0  0  0
  1  5  1  0  0  0  0
  1  8  1  0  0  0  0
  2  3  1  0  0  0  0
  2 13  1  0  0  0  0
  3  4  1  0  0  0  0
  3 14  2  0  0  0  0
  4  6  2  0  0  0  0
  4  7  1  0  0  0  0
  5  6  1  0  0  0  0
  6  9  1  0  0  0  0
  7 11  2  0  0  0  0
  7 21  1  0  0  0  0
  8 16  2  0  0  0  0
  8 23  1  0  0  0  0
  9 10  1  0  0  0  0
  9 15  2  0  0  0  0
 11 12  1  0  0  0  0
 11 15  1  0  0  0  0
 13 17  2  0  0  0  0
 13 19  1  0  0  0  0
 15 29  1  0  0  0  0
 17 18  1  0  0  0  0
 17 25  1  0  0  0  0
 19 20  1  0  0  0  0
 19 27  2  0  0  0  0
 21 22  1  0  0  0  0
 23 31  1  0  0  0  0
 24 25  2  0  0  0  0
 24 27  1  0  0  0  0
 24 30  1  0  0  0  0
 25 26  1  0  0  0  0
 27 28  1  0  0  0  0
 29 34  1  0  0  0  0
 30 38  1  0  0  0  0
 31 32  1  0  0  0  0
 31 33  1  0  0  0  0
 31 42  1  0  0  0  0
 34 35  1  0  0  0  0
 34 36  1  0  0  0  0
 34 37  1  0  0  0  0
 38 39  1  0  0  0  0
 38 40  1  0  0  0  0
 38 41  1  0  0  0  0
 42 43  1  0  0  0  0
 42 44  1  0  0  0  0
 42 45  1  0  0  0  0
M  END
>  <IDNUMBER>
AC-776/21258022

>  <NAME>
ethyl 5-hydroxy-7-methoxy-3-(4-methoxyphenyl)-4-oxo-4H-chromene-2-carboxylate

>  <ADD_INFO>
http://www.specs.net/enter.php?specsid=AC-776/21258022

>  <H_ACCEPTORS>
3

>  <H_DONORS>
1

>  <ROTATABLE_BONDS>
6

>  <LOGP>
4.9099998

>  <LOGS>
-5.52

>  <TPSA>
91.290001

>  <PRICE>
N06

$$$$
AC-776/21258024
  MOE2011           3D

 41 43  0  0  0  0  0  0  0  0999 V2000
    0.3550    1.8640   -0.1940 C   0  0  0  0  0  0  0  0  0  0  0  0
    0.7970    0.5940   -0.1810 C   0  0  0  0  0  0  0  0  0  0  0  0
   -0.2290   -0.4950   -0.1760 C   0  0  0  0  0  0  0  0  0  0  0  0
   -1.6560   -0.0810   -0.1370 C   0  0  0  0  0  0  0  0  0  0  0  0
   -0.9670    2.2500   -0.1940 O   0  0  0  0  0  0  0  0  0  0  0  0
   -1.9320    1.2840   -0.1510 C   0  0  0  0  0  0  0  0  0  0  0  0
   -2.7240   -0.9980   -0.0830 C   0  0  0  0  0  0  0  0  0  0  0  0
    1.3360    3.0450   -0.2250 C   0  0  0  0  0  0  0  0  0  0  0  0
   -3.2460    1.7500   -0.1180 C   0  0  0  0  0  0  0  0  0  0  0  0
   -3.4400    2.8200   -0.1310 H   0  0  0  0  0  0  0  0  0  0  0  0
   -4.0460   -0.5170   -0.0510 C   0  0  0  0  0  0  0  0  0  0  0  0
   -4.8720   -1.2150   -0.0200 H   0  0  0  0  0  0  0  0  0  0  0  0
    2.2330    0.2470   -0.1850 C   0  0  0  0  0  0  0  0  0  0  0  0
    0.1150   -1.6710   -0.2000 O   0  0  0  0  0  0  0  0  0  0  0  0
   -4.3090    0.8550   -0.0660 C   0  0  0  0  0  0  0  0  0  0  0  0
    1.6260    3.5200    0.9110 O   0  0  0  0  0  0  0  0  0  0  0  0
    2.8060   -0.3780   -1.2980 C   0  0  0  0  0  0  0  0  0  0  0  0
    2.2000   -0.6120   -2.1700 H   0  0  0  0  0  0  0  0  0  0  0  0
    3.0430    0.5300    0.9220 C   0  0  0  0  0  0  0  0  0  0  0  0
    2.6210    1.0260    1.7960 H   0  0  0  0  0  0  0  0  0  0  0  0
   -2.4120   -2.3310   -0.0690 O   0  0  0  0  0  0  0  0  0  0  0  0
    1.7020    3.4030   -1.3800 O   0  5  0  0  0  0  0  0  0  0  0  0
    4.9730   -0.4130   -0.1990 C   0  0  0  0  0  0  0  0  0  0  0  0
    4.1650   -0.7040   -1.3020 C   0  0  0  0  0  0  0  0  0  0  0  0
    4.5980   -1.1860   -2.1750 H   0  0  0  0  0  0  0  0  0  0  0  0
    4.4050    0.2050    0.9160 C   0  0  0  0  0  0  0  0  0  0  0  0
    4.9890    0.4570    1.7940 H   0  0  0  0  0  0  0  0  0  0  0  0
   -5.5450    1.4410   -0.0370 O   0  0  0  0  0  0  0  0  0  0  0  0
    6.2850   -0.7790   -0.3340 O   0  0  0  0  0  0  0  0  0  0  0  0
   -3.4610   -3.2760    0.0770 C   0  0  0  0  0  0  0  0  0  0  0  0
   -3.0100   -4.2720    0.1190 H   0  0  0  0  0  0  0  0  0  0  0  0
   -4.1340   -3.2530   -0.7860 H   0  0  0  0  0  0  0  0  0  0  0  0
   -4.0080   -3.1200    1.0130 H   0  0  0  0  0  0  0  0  0  0  0  0
   -6.6670    0.5800    0.0950 C   0  0  0  0  0  0  0  0  0  0  0  0
   -7.5650    1.2040    0.1350 H   0  0  0  0  0  0  0  0  0  0  0  0
   -6.6180    0.0070    1.0270 H   0  0  0  0  0  0  0  0  0  0  0  0
   -6.7600   -0.0820   -0.7720 H   0  0  0  0  0  0  0  0  0  0  0  0
    7.1500   -0.4760    0.7530 C   0  0  0  0  0  0  0  0  0  0  0  0
    8.1540   -0.8180    0.4870 H   0  0  0  0  0  0  0  0  0  0  0  0
    6.8460   -1.0090    1.6600 H   0  0  0  0  0  0  0  0  0  0  0  0
    7.2020    0.6040    0.9280 H   0  0  0  0  0  0  0  0  0  0  0  0
  1  2  2  0  0  0  0
  1  5  1  0  0  0  0
  1  8  1  0  0  0  0
  2  3  1  0  0  0  0
  2 13  1  0  0  0  0
  3  4  1  0  0  0  0
  3 14  2  0  0  0  0
  4  6  2  0  0  0  0
  4  7  1  0  0  0  0
  5  6  1  0  0  0  0
  6  9  1  0  0  0  0
  7 11  2  0  0  0  0
  7 21  1  0  0  0  0
  8 16  2  0  0  0  0
  8 22  1  0  0  0  0
  9 10  1  0  0  0  0
  9 15  2  0  0  0  0
 11 12  1  0  0  0  0
 11 15  1  0  0  0  0
 13 17  2  0  0  0  0
 13 19  1  0  0  0  0
 15 28  1  0  0  0  0
 17 18  1  0  0  0  0
 17 24  1  0  0  0  0
 19 20  1  0  0  0  0
 19 26  2  0  0  0  0
 21 30  1  0  0  0  0
 23 24  2  0  0  0  0
 23 26  1  0  0  0  0
 23 29  1  0  0  0  0
 24 25  1  0  0  0  0
 26 27  1  0  0  0  0
 28 34  1  0  0  0  0
 29 38  1  0  0  0  0
 30 31  1  0  0  0  0
 30 32  1  0  0  0  0
 30 33  1  0  0  0  0
 34 35  1  0  0  0  0
 34 36  1  0  0  0  0
 34 37  1  0  0  0  0
 38 39  1  0  0  0  0
 38 40  1  0  0  0  0
 38 41  1  0  0  0  0
M  CHG  1  22  -1
M  END
>  <IDNUMBER>
AC-776/21258024

>  <NAME>
5,7-dimethoxy-3-(4-methoxyphenyl)-4-oxo-4H-chromene-2-carboxylic acid

>  <ADD_INFO>
http://www.specs.net/enter.php?specsid=AC-776/21258024

>  <H_ACCEPTORS>
3

>  <H_DONORS>
1

>  <ROTATABLE_BONDS>
5

>  <LOGP>
3.9200001

>  <LOGS>
-4.75

>  <TPSA>
91.290001

>  <PRICE>
N06

$$$$
AC-776/25122008
  MOE2011           3D

 33 34  0  0  0  0  0  0  0  0999 V2000
    1.5070   -0.4390    0.1110 C   0  0  0  0  0  0  0  0  0  0  0  0
    2.6640   -1.2330    0.0200 C   0  0  0  0  0  0  0  0  0  0  0  0
    0.1880   -1.1240    0.1850 C   0  0  0  0  0  0  0  0  0  0  0  0
   -1.0690   -0.3490    0.0090 C   0  0  0  0  0  0  0  0  0  0  0  0
   -1.0210    0.6700   -0.3460 H   0  0  0  0  0  0  0  0  0  0  0  0
    3.9360   -0.6640   -0.0630 C   0  0  0  0  0  0  0  0  0  0  0  0
    4.7900   -1.3290   -0.1360 H   0  0  0  0  0  0  0  0  0  0  0  0
    1.6550    0.9510    0.1490 C   0  0  0  0  0  0  0  0  0  0  0  0
    0.8110    1.6240    0.2560 H   0  0  0  0  0  0  0  0  0  0  0  0
   -2.2470   -0.9450    0.2550 C   0  0  0  0  0  0  0  0  0  0  0  0
   -2.2820   -1.9850    0.5740 H   0  0  0  0  0  0  0  0  0  0  0  0
    0.1870   -2.3440    0.3620 O   0  0  0  0  0  0  0  0  0  0  0  0
    4.0740    0.7220   -0.0410 C   0  0  0  0  0  0  0  0  0  0  0  0
    2.6080   -2.6070    0.0150 O   0  0  0  0  0  0  0  0  0  0  0  0
    1.6610   -2.8560    0.1650 H   0  0  0  0  0  0  0  0  0  0  0  0
    2.9310    1.5200    0.0700 C   0  0  0  0  0  0  0  0  0  0  0  0
    3.0370    2.6030    0.0990 H   0  0  0  0  0  0  0  0  0  0  0  0
   -3.5520   -0.2860    0.0950 C   0  0  0  0  0  0  0  0  0  0  0  0
    5.2510    1.4160   -0.1110 O   0  0  0  0  0  0  0  0  0  0  0  0
   -3.7630    1.0570    0.4380 C   0  0  0  0  0  0  0  0  0  0  0  0
   -2.9530    1.6670    0.8290 H   0  0  0  0  0  0  0  0  0  0  0  0
   -4.6400   -1.0430   -0.3620 C   0  0  0  0  0  0  0  0  0  0  0  0
   -4.5120   -2.0920   -0.6230 H   0  0  0  0  0  0  0  0  0  0  0  0
    6.4440    0.6500   -0.2270 C   0  0  0  0  0  0  0  0  0  0  0  0
    7.2850    1.3470   -0.2810 H   0  0  0  0  0  0  0  0  0  0  0  0
    6.4440    0.0560   -1.1460 H   0  0  0  0  0  0  0  0  0  0  0  0
    6.5920    0.0160    0.6540 H   0  0  0  0  0  0  0  0  0  0  0  0
   -5.0280    1.6360    0.2990 C   0  0  0  0  0  0  0  0  0  0  0  0
   -5.1810    2.6790    0.5670 H   0  0  0  0  0  0  0  0  0  0  0  0
   -5.9040   -0.4630   -0.5010 C   0  0  0  0  0  0  0  0  0  0  0  0
   -6.7370   -1.0590   -0.8630 H   0  0  0  0  0  0  0  0  0  0  0  0
   -6.0970    0.8770   -0.1730 C   0  0  0  0  0  0  0  0  0  0  0  0
   -7.0800    1.3270   -0.2780 H   0  0  0  0  0  0  0  0  0  0  0  0
  1  2  2  0  0  0  0
  1  3  1  0  0  0  0
  1  8  1  0  0  0  0
  2  6  1  0  0  0  0
  2 14  1  0  0  0  0
  3  4  1  0  0  0  0
  3 12  2  0  0  0  0
  4  5  1  0  0  0  0
  4 10  2  0  0  0  0
  6  7  1  0  0  0  0
  6 13  2  0  0  0  0
  8  9  1  0  0  0  0
  8 16  2  0  0  0  0
 10 11  1  0  0  0  0
 10 18  1  0  0  0  0
 13 16  1  0  0  0  0
 13 19  1  0  0  0  0
 14 15  1  0  0  0  0
 16 17  1  0  0  0  0
 18 20  2  0  0  0  0
 18 22  1  0  0  0  0
 19 24  1  0  0  0  0
 20 21  1  0  0  0  0
 20 28  1  0  0  0  0
 22 23  1  0  0  0  0
 22 30  2  0  0  0  0
 24 25  1  0  0  0  0
 24 26  1  0  0  0  0
 24 27  1  0  0  0  0
 28 29  1  0  0  0  0
 28 32  2  0  0  0  0
 30 31  1  0  0  0  0
 30 32  1  0  0  0  0
 32 33  1  0  0  0  0
M  END
>  <IDNUMBER>
AC-776/25122008

>  <NAME>
1-(2-hydroxy-4-methoxyphenyl)-3-phenylprop-2-en-1-one

>  <ADD_INFO>
http://www.specs.net/enter.php?specsid=AC-776/25122008

>  <H_ACCEPTORS>
1

>  <H_DONORS>
1

>  <ROTATABLE_BONDS>
4

>  <LOGP>
4.04

>  <LOGS>
-3.9200001

>  <TPSA>
46.529999

>  <PRICE>
N06

$$$$
AC-776/41252588
  MOE2011           3D

 54 56  0  0  1  0  0  0  0  0999 V2000
   -1.0890   -0.1840    0.5710 C   0  0  0  0  0  0  0  0  0  0  0  0
    0.1180   -1.0060    1.0200 C   0  0  2  0  0  0  0  0  0  0  0  0
   -2.0960   -0.7260   -0.2380 C   0  0  0  0  0  0  0  0  0  0  0  0
    1.4330   -0.2510    0.8090 C   0  0  0  0  0  0  0  0  0  0  0  0
   -1.2320    1.1450    1.0100 C   0  0  0  0  0  0  0  0  0  0  0  0
   -0.4850    1.5850    1.6680 H   0  0  0  0  0  0  0  0  0  0  0  0
    0.2070   -2.4330    0.3830 C   0  0  2  0  0  0  0  0  0  0  0  0
   -2.0410   -2.1570   -0.7020 C   0  0  0  0  0  0  0  0  0  0  0  0
   -3.0610   -2.5590   -0.7540 H   0  0  0  0  0  0  0  0  0  0  0  0
   -1.6290   -2.1740   -1.7190 H   0  0  0  0  0  0  0  0  0  0  0  0
   -1.2060   -3.0470    0.2290 C   0  0  1  0  0  0  0  0  0  0  0  0
   -3.1650    0.0850   -0.6670 C   0  0  0  0  0  0  0  0  0  0  0  0
   -3.9040   -0.3610   -1.3260 H   0  0  0  0  0  0  0  0  0  0  0  0
    1.8260    0.1780   -0.4700 C   0  0  0  0  0  0  0  0  0  0  0  0
    1.2000   -0.0280   -1.3350 H   0  0  0  0  0  0  0  0  0  0  0  0
   -2.3180    1.9350    0.6180 C   0  0  0  0  0  0  0  0  0  0  0  0
   -3.2780    1.4210   -0.2630 C   0  0  0  0  0  0  0  0  0  0  0  0
    3.0240    0.8740   -0.6490 C   0  0  0  0  0  0  0  0  0  0  0  0
    2.2670    0.0350    1.9000 C   0  0  0  0  0  0  0  0  0  0  0  0
    1.9960   -0.2900    2.9020 H   0  0  0  0  0  0  0  0  0  0  0  0
    3.8230    1.2000    0.4500 C   0  0  0  0  0  0  0  0  0  0  0  0
    3.4540    0.7500    1.7190 C   0  0  0  0  0  0  0  0  0  0  0  0
    4.0850    0.9730    2.5760 H   0  0  0  0  0  0  0  0  0  0  0  0
   -2.2930    3.2160    1.1090 O   0  0  0  0  0  0  0  0  0  0  0  0
   -4.2640    2.2710   -0.6840 O   0  0  0  0  0  0  0  0  0  0  0  0
    3.3490    1.2450   -1.9280 O   0  0  0  0  0  0  0  0  0  0  0  0
    4.9970    1.9020    0.3900 O   0  0  0  0  0  0  0  0  0  0  0  0
    1.1340   -3.3340    1.2150 C   0  0  0  0  0  0  0  0  0  0  0  0
    1.3030   -4.2960    0.7210 H   0  0  0  0  0  0  0  0  0  0  0  0
    0.7110   -3.5280    2.2060 H   0  0  0  0  0  0  0  0  0  0  0  0
    2.1210   -2.8810    1.3500 H   0  0  0  0  0  0  0  0  0  0  0  0
   -1.1910   -4.4740   -0.3270 C   0  0  0  0  0  0  0  0  0  0  0  0
   -2.2090   -4.8250   -0.5250 H   0  0  0  0  0  0  0  0  0  0  0  0
   -0.7460   -5.1760    0.3860 H   0  0  0  0  0  0  0  0  0  0  0  0
   -0.6260   -4.5300   -1.2640 H   0  0  0  0  0  0  0  0  0  0  0  0
   -5.1450    1.8120   -1.7010 C   0  0  0  0  0  0  0  0  0  0  0  0
   -5.8130    2.6390   -1.9620 H   0  0  0  0  0  0  0  0  0  0  0  0
   -5.7660    0.9860   -1.3400 H   0  0  0  0  0  0  0  0  0  0  0  0
   -4.5950    1.5310   -2.6060 H   0  0  0  0  0  0  0  0  0  0  0  0
   -3.5400    3.6750    1.6250 C   0  0  0  0  0  0  0  0  0  0  0  0
   -3.3230    4.3850    2.4300 H   0  0  0  0  0  0  0  0  0  0  0  0
   -4.1460    2.8680    2.0500 H   0  0  0  0  0  0  0  0  0  0  0  0
   -4.0930    4.2160    0.8520 H   0  0  0  0  0  0  0  0  0  0  0  0
    4.2450    0.2890   -2.4960 C   0  0  0  0  0  0  0  0  0  0  0  0
    4.4500    0.5950   -3.5260 H   0  0  0  0  0  0  0  0  0  0  0  0
    3.7950   -0.7100   -2.5230 H   0  0  0  0  0  0  0  0  0  0  0  0
    5.1970    0.2630   -1.9550 H   0  0  0  0  0  0  0  0  0  0  0  0
    4.8970    3.1210   -0.3440 C   0  0  0  0  0  0  0  0  0  0  0  0
    5.6350    3.8160    0.0680 H   0  0  0  0  0  0  0  0  0  0  0  0
    3.9100    3.5890   -0.2500 H   0  0  0  0  0  0  0  0  0  0  0  0
    5.1500    2.9560   -1.3950 H   0  0  0  0  0  0  0  0  0  0  0  0
   -0.0320   -1.1470    2.1010 H   0  0  0  0  0  0  0  0  0  0  0  0
    0.6460   -2.3590   -0.6220 H   0  0  0  0  0  0  0  0  0  0  0  0
   -1.6870   -3.0790    1.2170 H   0  0  0  0  0  0  0  0  0  0  0  0
  1  2  1  0  0  0  0
  1  3  2  0  0  0  0
  1  5  1  0  0  0  0
  2  4  1  0  0  0  0
  2  7  1  0  0  0  0
  2 52  1  0  0  0  0
  3  8  1  0  0  0  0
  3 12  1  0  0  0  0
  4 14  2  0  0  0  0
  4 19  1  0  0  0  0
  5  6  1  0  0  0  0
  5 16  2  0  0  0  0
  7 11  1  0  0  0  0
  7 28  1  0  0  0  0
  7 53  1  0  0  0  0
  8  9  1  0  0  0  0
  8 10  1  0  0  0  0
  8 11  1  0  0  0  0
 11 32  1  0  0  0  0
 11 54  1  0  0  0  0
 12 13  1  0  0  0  0
 12 17  2  0  0  0  0
 14 15  1  0  0  0  0
 14 18  1  0  0  0  0
 16 17  1  0  0  0  0
 16 24  1  0  0  0  0
 17 25  1  0  0  0  0
 18 21  2  0  0  0  0
 18 26  1  0  0  0  0
 19 20  1  0  0  0  0
 19 22  2  0  0  0  0
 21 22  1  0  0  0  0
 21 27  1  0  0  0  0
 22 23  1  0  0  0  0
 24 40  1  0  0  0  0
 25 36  1  0  0  0  0
 26 44  1  0  0  0  0
 27 48  1  0  0  0  0
 28 29  1  0  0  0  0
 28 30  1  0  0  0  0
 28 31  1  0  0  0  0
 32 33  1  0  0  0  0
 32 34  1  0  0  0  0
 32 35  1  0  0  0  0
 36 37  1  0  0  0  0
 36 38  1  0  0  0  0
 36 39  1  0  0  0  0
 40 41  1  0  0  0  0
 40 42  1  0  0  0  0
 40 43  1  0  0  0  0
 44 45  1  0  0  0  0
 44 46  1  0  0  0  0
 44 47  1  0  0  0  0
 48 49  1  0  0  0  0
 48 50  1  0  0  0  0
 48 51  1  0  0  0  0
M  END
>  <IDNUMBER>
AC-776/41252588

>  <NAME>
Galbulin

>  <ADD_INFO>
http://www.specs.net/enter.php?specsid=AC-776/41252588

>  <H_ACCEPTORS>
0

>  <H_DONORS>
0

>  <ROTATABLE_BONDS>
5

>  <LOGP>
5.1999998

>  <LOGS>
-6.2399998

>  <TPSA>
36.919998

>  <PRICE>
N07

$$$$
AC-776/41252593
  MOE2011           3D

 55 57  0  0  1  0  0  0  0  0999 V2000
   -0.1740   -1.3090    1.3100 O   0  0  0  0  0  0  0  0  0  0  0  0
    1.2180   -1.5420    1.0230 C   0  0  1  0  0  0  0  0  0  0  0  0
   -0.9910   -1.7670    0.2070 C   0  0  2  0  0  0  0  0  0  0  0  0
    1.2400   -2.5580   -0.1270 C   0  0  2  0  0  0  0  0  0  0  0  0
   -0.0120   -2.1580   -0.9080 C   0  0  1  0  0  0  0  0  0  0  0  0
    1.9450   -0.2420    0.7120 C   0  0  0  0  0  0  0  0  0  0  0  0
   -2.0390   -0.7070   -0.0770 C   0  0  0  0  0  0  0  0  0  0  0  0
    3.3250   -0.2660    0.4400 C   0  0  0  0  0  0  0  0  0  0  0  0
    3.8340   -1.2250    0.4640 H   0  0  0  0  0  0  0  0  0  0  0  0
   -2.8410   -0.2580    0.9910 C   0  0  0  0  0  0  0  0  0  0  0  0
   -2.6570   -0.6870    1.9730 H   0  0  0  0  0  0  0  0  0  0  0  0
    4.0310    0.9110    0.1540 C   0  0  0  0  0  0  0  0  0  0  0  0
   -3.8360    0.7110    0.8070 C   0  0  0  0  0  0  0  0  0  0  0  0
    3.3560    2.1470    0.1590 C   0  0  0  0  0  0  0  0  0  0  0  0
   -4.0540    1.2440   -0.4770 C   0  0  0  0  0  0  0  0  0  0  0  0
    1.2930    0.9970    0.7200 C   0  0  0  0  0  0  0  0  0  0  0  0
    0.2310    1.0620    0.9470 H   0  0  0  0  0  0  0  0  0  0  0  0
   -2.2690   -0.1600   -1.3430 C   0  0  0  0  0  0  0  0  0  0  0  0
   -1.6840   -0.4640   -2.2060 H   0  0  0  0  0  0  0  0  0  0  0  0
   -3.2630    0.8050   -1.5420 C   0  0  0  0  0  0  0  0  0  0  0  0
   -3.3870    1.1980   -2.5460 H   0  0  0  0  0  0  0  0  0  0  0  0
    1.9880    2.1780    0.4440 C   0  0  0  0  0  0  0  0  0  0  0  0
    1.4260    3.1070    0.4630 H   0  0  0  0  0  0  0  0  0  0  0  0
    5.3740    0.9580   -0.1300 O   0  0  0  0  0  0  0  0  0  0  0  0
   -4.6450    1.1940    1.8070 O   0  0  0  0  0  0  0  0  0  0  0  0
    4.1150    3.2560   -0.1240 O   0  0  0  0  0  0  0  0  0  0  0  0
   -5.0480    2.1860   -0.5840 O   0  0  0  0  0  0  0  0  0  0  0  0
    1.2160   -3.9890    0.4220 C   0  0  0  0  0  0  0  0  0  0  0  0
    1.2370   -4.7220   -0.3910 H   0  0  0  0  0  0  0  0  0  0  0  0
    0.3300   -4.1830    1.0340 H   0  0  0  0  0  0  0  0  0  0  0  0
    2.0980   -4.1720    1.0450 H   0  0  0  0  0  0  0  0  0  0  0  0
   -0.5550   -3.2150   -1.8630 C   0  0  0  0  0  0  0  0  0  0  0  0
    0.2200   -3.5310   -2.5680 H   0  0  0  0  0  0  0  0  0  0  0  0
   -1.3960   -2.8250   -2.4450 H   0  0  0  0  0  0  0  0  0  0  0  0
   -0.9140   -4.1020   -1.3300 H   0  0  0  0  0  0  0  0  0  0  0  0
    6.0620   -0.2770   -0.2680 C   0  0  0  0  0  0  0  0  0  0  0  0
    7.0940   -0.0540   -0.5580 H   0  0  0  0  0  0  0  0  0  0  0  0
    5.6210   -0.8910   -1.0600 H   0  0  0  0  0  0  0  0  0  0  0  0
    6.0940   -0.8180    0.6830 H   0  0  0  0  0  0  0  0  0  0  0  0
   -4.4370    0.6970    3.1220 C   0  0  0  0  0  0  0  0  0  0  0  0
   -5.1520    1.1940    3.7840 H   0  0  0  0  0  0  0  0  0  0  0  0
   -3.4310    0.9360    3.4810 H   0  0  0  0  0  0  0  0  0  0  0  0
   -4.6320   -0.3800    3.1720 H   0  0  0  0  0  0  0  0  0  0  0  0
    3.4600    4.5180   -0.1210 C   0  0  0  0  0  0  0  0  0  0  0  0
    4.2060    5.2810   -0.3620 H   0  0  0  0  0  0  0  0  0  0  0  0
    3.0560    4.7500    0.8690 H   0  0  0  0  0  0  0  0  0  0  0  0
    2.6810    4.5600   -0.8900 H   0  0  0  0  0  0  0  0  0  0  0  0
   -5.3850    2.6380   -1.8890 C   0  0  0  0  0  0  0  0  0  0  0  0
   -6.2320    3.3250   -1.7960 H   0  0  0  0  0  0  0  0  0  0  0  0
   -5.7010    1.8060   -2.5270 H   0  0  0  0  0  0  0  0  0  0  0  0
   -4.5560    3.1920   -2.3400 H   0  0  0  0  0  0  0  0  0  0  0  0
    1.6690   -1.9480    1.9370 H   0  0  0  0  0  0  0  0  0  0  0  0
   -1.5200   -2.6610    0.5620 H   0  0  0  0  0  0  0  0  0  0  0  0
    2.1320   -2.4680   -0.7590 H   0  0  0  0  0  0  0  0  0  0  0  0
    0.2580   -1.2740   -1.5010 H   0  0  0  0  0  0  0  0  0  0  0  0
  1  2  1  0  0  0  0
  1  3  1  0  0  0  0
  2  4  1  0  0  0  0
  2  6  1  0  0  0  0
  2 52  1  0  0  0  0
  3  5  1  0  0  0  0
  3  7  1  0  0  0  0
  3 53  1  0  0  0  0
  4  5  1  0  0  0  0
  4 28  1  0  0  0  0
  4 54  1  0  0  0  0
  5 32  1  0  0  0  0
  5 55  1  0  0  0  0
  6  8  2  0  0  0  0
  6 16  1  0  0  0  0
  7 10  2  0  0  0  0
  7 18  1  0  0  0  0
  8  9  1  0  0  0  0
  8 12  1  0  0  0  0
 10 11  1  0  0  0  0
 10 13  1  0  0  0  0
 12 14  2  0  0  0  0
 12 24  1  0  0  0  0
 13 15  2  0  0  0  0
 13 25  1  0  0  0  0
 14 22  1  0  0  0  0
 14 26  1  0  0  0  0
 15 20  1  0  0  0  0
 15 27  1  0  0  0  0
 16 17  1  0  0  0  0
 16 22  2  0  0  0  0
 18 19  1  0  0  0  0
 18 20  2  0  0  0  0
 20 21  1  0  0  0  0
 22 23  1  0  0  0  0
 24 36  1  0  0  0  0
 25 40  1  0  0  0  0
 26 44  1  0  0  0  0
 27 48  1  0  0  0  0
 28 29  1  0  0  0  0
 28 30  1  0  0  0  0
 28 31  1  0  0  0  0
 32 33  1  0  0  0  0
 32 34  1  0  0  0  0
 32 35  1  0  0  0  0
 36 37  1  0  0  0  0
 36 38  1  0  0  0  0
 36 39  1  0  0  0  0
 40 41  1  0  0  0  0
 40 42  1  0  0  0  0
 40 43  1  0  0  0  0
 44 45  1  0  0  0  0
 44 46  1  0  0  0  0
 44 47  1  0  0  0  0
 48 49  1  0  0  0  0
 48 50  1  0  0  0  0
 48 51  1  0  0  0  0
M  END
>  <IDNUMBER>
AC-776/41252593

>  <NAME>
Ganschisandrine

>  <ADD_INFO>
http://www.specs.net/enter.php?specsid=AC-776/41252593

>  <H_ACCEPTORS>
1

>  <H_DONORS>
0

>  <ROTATABLE_BONDS>
6

>  <LOGP>
4.3299999

>  <LOGS>
-5.6100001

>  <TPSA>
46.150002

>  <PRICE>
N07

$$$$
AC-776/41252594
  MOE2011           3D

 64 67  0  0  1  0  0  0  0  0999 V2000
    0.5780   -1.3410   -0.5080 C   0  0  1  0  0  0  0  0  0  0  0  0
   -0.5270   -0.3680   -0.1560 C   0  0  1  0  0  0  0  0  0  0  0  0
    2.7940   -0.4740    0.6190 C   0  0  0  0  0  0  0  0  0  0  0  0
   -3.0690   -0.4530   -0.4130 C   0  0  0  0  0  0  0  0  0  0  0  0
    1.5170   -1.2880    0.7190 C   0  0  1  0  0  0  0  0  0  0  0  0
    4.0550   -0.9780    0.9890 C   0  0  0  0  0  0  0  0  0  0  0  0
   -4.0440   -1.2800    0.1600 C   0  0  0  0  0  0  0  0  0  0  0  0
   -1.7220   -0.8920   -0.9400 C   0  0  2  0  0  0  0  0  0  0  0  0
    4.1850   -2.3010    1.5690 N   0  3  0  0  0  0  0  0  0  0  0  0
   -3.8280   -2.7030    0.3300 N   0  3  0  0  0  0  0  0  0  0  0  0
   -1.5600   -2.3100   -1.0240 O   0  0  0  0  0  0  0  0  0  0  0  0
    0.7490   -0.7120    1.8000 O   0  0  0  0  0  0  0  0  0  0  0  0
   -5.2750   -0.7870    0.6320 C   0  0  0  0  0  0  0  0  0  0  0  0
   -5.9770   -1.4830    1.0830 H   0  0  0  0  0  0  0  0  0  0  0  0
    5.2470   -0.2450    0.8440 C   0  0  0  0  0  0  0  0  0  0  0  0
    6.1880   -0.7030    1.1350 H   0  0  0  0  0  0  0  0  0  0  0  0
   -0.2150   -2.6530   -0.6360 C   0  0  0  0  0  0  0  0  0  0  0  0
   -0.2870   -3.1960    0.3130 H   0  0  0  0  0  0  0  0  0  0  0  0
    0.1800   -3.3370   -1.3910 H   0  0  0  0  0  0  0  0  0  0  0  0
    2.7680    0.8460    0.1440 C   0  0  0  0  0  0  0  0  0  0  0  0
    1.8320    1.3170   -0.1420 H   0  0  0  0  0  0  0  0  0  0  0  0
   -3.3890    0.9130   -0.5110 C   0  0  0  0  0  0  0  0  0  0  0  0
   -2.6740    1.6090   -0.9510 H   0  0  0  0  0  0  0  0  0  0  0  0
   -0.5940   -0.4870    1.3560 C   0  0  0  0  0  0  0  0  0  0  0  0
   -1.2000   -1.3290    1.7010 H   0  0  0  0  0  0  0  0  0  0  0  0
   -0.9790    0.4230    1.8250 H   0  0  0  0  0  0  0  0  0  0  0  0
    1.1470   -0.9520   -1.7720 O   0  0  0  0  0  0  0  0  0  0  0  0
    5.1990    1.0520    0.3370 C   0  0  0  0  0  0  0  0  0  0  0  0
   -5.5670    0.5750    0.5320 C   0  0  0  0  0  0  0  0  0  0  0  0
    3.9460    1.5950    0.0190 C   0  0  0  0  0  0  0  0  0  0  0  0
   -4.6210    1.4210   -0.0700 C   0  0  0  0  0  0  0  0  0  0  0  0
    3.7370   -2.4620    2.7110 O   0  5  0  0  0  0  0  0  0  0  0  0
   -3.2030   -3.0570    1.3390 O   0  5  0  0  0  0  0  0  0  0  0  0
    2.1750   -1.7060   -2.2510 C   0  0  0  0  0  0  0  0  0  0  0  0
   -4.3580   -3.4510   -0.5020 O   0  0  0  0  0  0  0  0  0  0  0  0
    4.7680   -3.1560    0.8930 O   0  0  0  0  0  0  0  0  0  0  0  0
    2.6470   -2.6860   -1.6930 O   0  0  0  0  0  0  0  0  0  0  0  0
    6.2840    1.8610    0.1310 O   0  0  0  0  0  0  0  0  0  0  0  0
   -6.7110    1.1530    1.0110 O   0  0  0  0  0  0  0  0  0  0  0  0
    3.8310    2.8600   -0.5040 O   0  0  0  0  0  0  0  0  0  0  0  0
   -4.7530    2.7780   -0.2280 O   0  0  0  0  0  0  0  0  0  0  0  0
    2.6510   -1.1530   -3.5580 C   0  0  0  0  0  0  0  0  0  0  0  0
    2.9770   -0.1180   -3.4260 H   0  0  0  0  0  0  0  0  0  0  0  0
    1.8500   -1.2140   -4.2990 H   0  0  0  0  0  0  0  0  0  0  0  0
    3.5020   -1.7430   -3.9120 H   0  0  0  0  0  0  0  0  0  0  0  0
    3.7860    3.8220    0.5510 C   0  0  0  0  0  0  0  0  0  0  0  0
    3.6720    4.8100    0.0960 H   0  0  0  0  0  0  0  0  0  0  0  0
    4.7140    3.8230    1.1340 H   0  0  0  0  0  0  0  0  0  0  0  0
    2.9260    3.6480    1.2060 H   0  0  0  0  0  0  0  0  0  0  0  0
   -6.0080    3.1950   -0.7610 C   0  0  0  0  0  0  0  0  0  0  0  0
   -5.8350    4.1110   -1.3350 H   0  0  0  0  0  0  0  0  0  0  0  0
   -6.7010    3.4400    0.0490 H   0  0  0  0  0  0  0  0  0  0  0  0
   -6.4450    2.4560   -1.4420 H   0  0  0  0  0  0  0  0  0  0  0  0
    7.5730    1.3000    0.3480 C   0  0  0  0  0  0  0  0  0  0  0  0
    8.3160    2.0570    0.0820 H   0  0  0  0  0  0  0  0  0  0  0  0
    7.7390    0.4280   -0.2940 H   0  0  0  0  0  0  0  0  0  0  0  0
    7.7170    1.0470    1.4040 H   0  0  0  0  0  0  0  0  0  0  0  0
   -7.6730    0.3150    1.6390 C   0  0  0  0  0  0  0  0  0  0  0  0
   -8.5110    0.9440    1.9510 H   0  0  0  0  0  0  0  0  0  0  0  0
   -7.2590   -0.1580    2.5350 H   0  0  0  0  0  0  0  0  0  0  0  0
   -8.0610   -0.4320    0.9380 H   0  0  0  0  0  0  0  0  0  0  0  0
   -0.2960    0.6640   -0.4420 H   0  0  0  0  0  0  0  0  0  0  0  0
    1.7450   -2.3150    1.0170 H   0  0  0  0  0  0  0  0  0  0  0  0
   -1.6500   -0.5390   -1.9780 H   0  0  0  0  0  0  0  0  0  0  0  0
  1  2  1  0  0  0  0
  1  5  1  0  0  0  0
  1 17  1  0  0  0  0
  1 27  1  0  0  0  0
  2  8  1  0  0  0  0
  2 24  1  0  0  0  0
  2 62  1  0  0  0  0
  3  5  1  0  0  0  0
  3  6  2  0  0  0  0
  3 20  1  0  0  0  0
  4  7  2  0  0  0  0
  4  8  1  0  0  0  0
  4 22  1  0  0  0  0
  5 12  1  0  0  0  0
  5 63  1  0  0  0  0
  6  9  1  0  0  0  0
  6 15  1  0  0  0  0
  7 10  1  0  0  0  0
  7 13  1  0  0  0  0
  8 11  1  0  0  0  0
  8 64  1  0  0  0  0
  9 32  1  0  0  0  0
  9 36  2  0  0  0  0
 10 33  1  0  0  0  0
 10 35  2  0  0  0  0
 11 17  1  0  0  0  0
 12 24  1  0  0  0  0
 13 14  1  0  0  0  0
 13 29  2  0  0  0  0
 15 16  1  0  0  0  0
 15 28  2  0  0  0  0
 17 18  1  0  0  0  0
 17 19  1  0  0  0  0
 20 21  1  0  0  0  0
 20 30  2  0  0  0  0
 22 23  1  0  0  0  0
 22 31  2  0  0  0  0
 24 25  1  0  0  0  0
 24 26  1  0  0  0  0
 27 34  1  0  0  0  0
 28 30  1  0  0  0  0
 28 38  1  0  0  0  0
 29 31  1  0  0  0  0
 29 39  1  0  0  0  0
 30 40  1  0  0  0  0
 31 41  1  0  0  0  0
 34 37  2  0  0  0  0
 34 42  1  0  0  0  0
 38 54  1  0  0  0  0
 39 58  1  0  0  0  0
 40 46  1  0  0  0  0
 41 50  1  0  0  0  0
 42 43  1  0  0  0  0
 42 44  1  0  0  0  0
 42 45  1  0  0  0  0
 46 47  1  0  0  0  0
 46 48  1  0  0  0  0
 46 49  1  0  0  0  0
 50 51  1  0  0  0  0
 50 52  1  0  0  0  0
 50 53  1  0  0  0  0
 54 55  1  0  0  0  0
 54 56  1  0  0  0  0
 54 57  1  0  0  0  0
 58 59  1  0  0  0  0
 58 60  1  0  0  0  0
 58 61  1  0  0  0  0
M  CHG  1   9   1
M  CHG  1  10   1
M  CHG  1  32  -1
M  CHG  1  33  -1
M  END
>  <IDNUMBER>
AC-776/41252594

>  <NAME>
Gmelinol, derivative of

>  <ADD_INFO>
http://www.specs.net/enter.php?specsid=AC-776/41252594

>  <H_ACCEPTORS>
4

>  <H_DONORS>
0

>  <ROTATABLE_BONDS>
10

>  <LOGP>
1.76

>  <LOGS>
-4.9899998

>  <TPSA>
167.96001

>  <PRICE>
N07

$$$$
AC-776/41252595
  MOE2011           3D

 58 61  0  0  1  0  0  0  0  0999 V2000
    0.3980   -2.1470   -0.7490 C   0  0  1  0  0  0  0  0  0  0  0  0
   -0.3650   -2.0820    0.5500 C   0  0  1  0  0  0  0  0  0  0  0  0
    1.8150   -2.5300   -0.3550 C   0  0  2  0  0  0  0  0  0  0  0  0
   -1.7760   -2.5690    0.2030 C   0  0  2  0  0  0  0  0  0  0  0  0
    1.6480   -3.3770    0.7990 O   0  0  0  0  0  0  0  0  0  0  0  0
   -1.7010   -3.1840   -1.0970 O   0  0  0  0  0  0  0  0  0  0  0  0
    2.8190   -1.4480    0.0080 C   0  0  0  0  0  0  0  0  0  0  0  0
   -2.8660   -1.5160    0.1390 C   0  0  0  0  0  0  0  0  0  0  0  0
   -0.3280   -3.2650   -1.4870 C   0  0  0  0  0  0  0  0  0  0  0  0
    0.0390   -4.2630   -1.2210 H   0  0  0  0  0  0  0  0  0  0  0  0
   -0.2520   -3.1570   -2.5730 H   0  0  0  0  0  0  0  0  0  0  0  0
    0.4090   -3.0480    1.4480 C   0  0  0  0  0  0  0  0  0  0  0  0
   -0.1200   -3.9840    1.6500 H   0  0  0  0  0  0  0  0  0  0  0  0
    0.6410   -2.5840    2.4120 H   0  0  0  0  0  0  0  0  0  0  0  0
    4.8030    0.4170    0.6600 C   0  0  0  0  0  0  0  0  0  0  0  0
   -4.9650    0.3210   -0.0490 C   0  0  0  0  0  0  0  0  0  0  0  0
    2.5650   -0.0670   -0.1000 C   0  0  0  0  0  0  0  0  0  0  0  0
    1.5910    0.2690   -0.4320 H   0  0  0  0  0  0  0  0  0  0  0  0
   -2.6740   -0.2700   -0.4890 C   0  0  0  0  0  0  0  0  0  0  0  0
   -1.7050   -0.0540   -0.9220 H   0  0  0  0  0  0  0  0  0  0  0  0
    3.5520    0.8750    0.2250 C   0  0  0  0  0  0  0  0  0  0  0  0
   -3.7180    0.6590   -0.5870 C   0  0  0  0  0  0  0  0  0  0  0  0
    5.8010    1.3240    1.0380 O   0  0  0  0  0  0  0  0  0  0  0  0
   -6.0500    1.1930   -0.2100 O   0  0  0  0  0  0  0  0  0  0  0  0
    6.5210    1.8210   -0.0430 C   0  0  0  0  0  0  0  0  0  0  0  0
   -6.2580    2.0250    0.8820 C   0  0  0  0  0  0  0  0  0  0  0  0
    4.0880   -1.8630    0.4600 C   0  0  0  0  0  0  0  0  0  0  0  0
    4.3050   -2.9260    0.5590 H   0  0  0  0  0  0  0  0  0  0  0  0
   -4.1380   -1.8210    0.6590 C   0  0  0  0  0  0  0  0  0  0  0  0
   -4.3240   -2.7870    1.1250 H   0  0  0  0  0  0  0  0  0  0  0  0
    5.0750   -0.9400    0.7950 C   0  0  0  0  0  0  0  0  0  0  0  0
    6.0420   -1.2780    1.1520 H   0  0  0  0  0  0  0  0  0  0  0  0
   -5.1880   -0.9100    0.5630 C   0  0  0  0  0  0  0  0  0  0  0  0
   -6.1690   -1.1640    0.9520 H   0  0  0  0  0  0  0  0  0  0  0  0
    6.4040    1.5000   -1.2180 O   0  0  0  0  0  0  0  0  0  0  0  0
   -5.6470    2.0190    1.9430 O   0  0  0  0  0  0  0  0  0  0  0  0
    3.4040    2.2360    0.1670 O   0  0  0  0  0  0  0  0  0  0  0  0
   -3.6340    1.8870   -1.1890 O   0  0  0  0  0  0  0  0  0  0  0  0
   -7.3970    2.9500    0.5710 C   0  0  0  0  0  0  0  0  0  0  0  0
   -7.1820    3.5090   -0.3430 H   0  0  0  0  0  0  0  0  0  0  0  0
   -7.5170    3.6640    1.3910 H   0  0  0  0  0  0  0  0  0  0  0  0
   -8.3210    2.3770    0.4650 H   0  0  0  0  0  0  0  0  0  0  0  0
    7.5100    2.8290    0.4620 C   0  0  0  0  0  0  0  0  0  0  0  0
    6.9860    3.6290    0.9910 H   0  0  0  0  0  0  0  0  0  0  0  0
    8.0440    3.2670   -0.3860 H   0  0  0  0  0  0  0  0  0  0  0  0
    8.2330    2.3400    1.1200 H   0  0  0  0  0  0  0  0  0  0  0  0
    2.2130    2.7340   -0.4280 C   0  0  0  0  0  0  0  0  0  0  0  0
    2.2900    3.8250   -0.4690 H   0  0  0  0  0  0  0  0  0  0  0  0
    1.3370    2.4850    0.1810 H   0  0  0  0  0  0  0  0  0  0  0  0
    2.0980    2.3700   -1.4540 H   0  0  0  0  0  0  0  0  0  0  0  0
   -2.3640    2.2780   -1.6940 C   0  0  0  0  0  0  0  0  0  0  0  0
   -2.4620    3.2890   -2.1000 H   0  0  0  0  0  0  0  0  0  0  0  0
   -2.0460    1.6210   -2.5100 H   0  0  0  0  0  0  0  0  0  0  0  0
   -1.6140    2.3110   -0.8960 H   0  0  0  0  0  0  0  0  0  0  0  0
    0.3200   -1.2300   -1.3400 H   0  0  0  0  0  0  0  0  0  0  0  0
   -0.3530   -1.0870    1.0100 H   0  0  0  0  0  0  0  0  0  0  0  0
    2.2740   -3.1290   -1.1520 H   0  0  0  0  0  0  0  0  0  0  0  0
   -2.0900   -3.3440    0.9130 H   0  0  0  0  0  0  0  0  0  0  0  0
  1  2  1  0  0  0  0
  1  3  1  0  0  0  0
  1  9  1  0  0  0  0
  1 55  1  0  0  0  0
  2  4  1  0  0  0  0
  2 12  1  0  0  0  0
  2 56  1  0  0  0  0
  3  5  1  0  0  0  0
  3  7  1  0  0  0  0
  3 57  1  0  0  0  0
  4  6  1  0  0  0  0
  4  8  1  0  0  0  0
  4 58  1  0  0  0  0
  5 12  1  0  0  0  0
  6  9  1  0  0  0  0
  7 17  2  0  0  0  0
  7 27  1  0  0  0  0
  8 19  2  0  0  0  0
  8 29  1  0  0  0  0
  9 10  1  0  0  0  0
  9 11  1  0  0  0  0
 12 13  1  0  0  0  0
 12 14  1  0  0  0  0
 15 21  2  0  0  0  0
 15 23  1  0  0  0  0
 15 31  1  0  0  0  0
 16 22  2  0  0  0  0
 16 24  1  0  0  0  0
 16 33  1  0  0  0  0
 17 18  1  0  0  0  0
 17 21  1  0  0  0  0
 19 20  1  0  0  0  0
 19 22  1  0  0  0  0
 21 37  1  0  0  0  0
 22 38  1  0  0  0  0
 23 25  1  0  0  0  0
 24 26  1  0  0  0  0
 25 35  2  0  0  0  0
 25 43  1  0  0  0  0
 26 36  2  0  0  0  0
 26 39  1  0  0  0  0
 27 28  1  0  0  0  0
 27 31  2  0  0  0  0
 29 30  1  0  0  0  0
 29 33  2  0  0  0  0
 31 32  1  0  0  0  0
 33 34  1  0  0  0  0
 37 47  1  0  0  0  0
 38 51  1  0  0  0  0
 39 40  1  0  0  0  0
 39 41  1  0  0  0  0
 39 42  1  0  0  0  0
 43 44  1  0  0  0  0
 43 45  1  0  0  0  0
 43 46  1  0  0  0  0
 47 48  1  0  0  0  0
 47 49  1  0  0  0  0
 47 50  1  0  0  0  0
 51 52  1  0  0  0  0
 51 53  1  0  0  0  0
 51 54  1  0  0  0  0
M  END
>  <IDNUMBER>
AC-776/41252595

>  <NAME>
Pinoresinol, Di-Acetate

>  <ADD_INFO>
http://www.specs.net/enter.php?specsid=AC-776/41252595

>  <H_ACCEPTORS>
4

>  <H_DONORS>
0

>  <ROTATABLE_BONDS>
8

>  <LOGP>
2.6800001

>  <LOGS>
-4.7199998

>  <TPSA>
89.519997

>  <PRICE>
N07

$$$$
AC-776/41252599
  MOE2011           3D

 63 66  0  0  0  0  0  0  0  0999 V2000
    0.8190   -0.5750   -0.4960 C   0  0  0  0  0  0  0  0  0  0  0  0
    2.2910   -0.5270   -0.3690 C   0  0  0  0  0  0  0  0  0  0  0  0
    2.9930    0.6100   -0.5590 C   0  0  0  0  0  0  0  0  0  0  0  0
    0.1590    0.6400   -0.6980 C   0  0  0  0  0  0  0  0  0  0  0  0
    2.2790    1.8980   -0.7510 C   0  0  0  0  0  0  0  0  0  0  0  0
   -1.9940   -0.4290   -0.8500 C   0  0  0  0  0  0  0  0  0  0  0  0
   -1.3750   -1.6770   -0.6940 C   0  0  0  0  0  0  0  0  0  0  0  0
    0.8960    1.8450   -0.7560 O   0  0  0  0  0  0  0  0  0  0  0  0
    0.0190   -1.7380   -0.4630 C   0  0  0  0  0  0  0  0  0  0  0  0
   -1.2340    0.7490   -0.8670 C   0  0  0  0  0  0  0  0  0  0  0  0
   -2.1950   -2.8800   -0.8460 C   0  0  0  0  0  0  0  0  0  0  0  0
   -1.7200   -3.8470   -0.9570 H   0  0  0  0  0  0  0  0  0  0  0  0
   -3.3460   -0.2960   -1.0420 O   0  0  0  0  0  0  0  0  0  0  0  0
    2.9420   -1.7690   -0.1640 O   0  0  0  0  0  0  0  0  0  0  0  0
   -1.8970    2.1000   -1.0530 C   0  0  0  0  0  0  0  0  0  0  0  0
   -1.2140    2.7790   -1.5790 H   0  0  0  0  0  0  0  0  0  0  0  0
   -2.7440    2.0050   -1.7380 H   0  0  0  0  0  0  0  0  0  0  0  0
    4.4770    0.6030   -0.5740 C   0  0  0  0  0  0  0  0  0  0  0  0
   -3.5240   -2.7540   -0.8430 C   0  0  0  0  0  0  0  0  0  0  0  0
   -4.1460   -3.6420   -0.9210 H   0  0  0  0  0  0  0  0  0  0  0  0
   -4.1980   -1.4120   -0.7180 C   0  0  0  0  0  0  0  0  0  0  0  0
   -2.2760    2.7360    0.2580 C   0  0  0  0  0  0  0  0  0  0  0  0
   -1.4230    2.9730    0.8930 H   0  0  0  0  0  0  0  0  0  0  0  0
    3.4260   -2.1520    1.0560 C   0  0  0  0  0  0  0  0  0  0  0  0
    2.8660    2.9670   -0.8830 O   0  0  0  0  0  0  0  0  0  0  0  0
   -3.5050    3.0560    0.7060 C   0  0  0  0  0  0  0  0  0  0  0  0
    4.0610   -3.1960    1.1880 O   0  0  0  0  0  0  0  0  0  0  0  0
    0.6150   -2.9660   -0.2740 O   0  0  0  0  0  0  0  0  0  0  0  0
    5.2050    1.3840    0.3380 C   0  0  0  0  0  0  0  0  0  0  0  0
    4.6890    2.0080    1.0650 H   0  0  0  0  0  0  0  0  0  0  0  0
    5.1800   -0.1710   -1.5110 C   0  0  0  0  0  0  0  0  0  0  0  0
    4.6480   -0.7790   -2.2400 H   0  0  0  0  0  0  0  0  0  0  0  0
    7.2770    0.5950   -0.6030 C   0  0  0  0  0  0  0  0  0  0  0  0
    6.5760   -0.1780   -1.5220 C   0  0  0  0  0  0  0  0  0  0  0  0
    7.1150   -0.7830   -2.2450 H   0  0  0  0  0  0  0  0  0  0  0  0
    6.6030    1.3790    0.3270 C   0  0  0  0  0  0  0  0  0  0  0  0
    7.1410    1.9920    1.0430 H   0  0  0  0  0  0  0  0  0  0  0  0
    8.6390    0.5580   -0.6490 O   0  0  0  0  0  0  0  0  0  0  0  0
    8.9910    1.1350    0.0480 H   0  0  0  0  0  0  0  0  0  0  0  0
    3.1270   -1.2620    2.2300 C   0  0  0  0  0  0  0  0  0  0  0  0
    2.0640   -1.0170    2.2820 H   0  0  0  0  0  0  0  0  0  0  0  0
    3.7380   -0.3600    2.1980 H   0  0  0  0  0  0  0  0  0  0  0  0
    3.3730   -1.8030    3.1500 H   0  0  0  0  0  0  0  0  0  0  0  0
   -4.7250   -1.2150    0.7080 C   0  0  0  0  0  0  0  0  0  0  0  0
   -5.4290   -2.0030    0.9960 H   0  0  0  0  0  0  0  0  0  0  0  0
   -5.2320   -0.2480    0.8060 H   0  0  0  0  0  0  0  0  0  0  0  0
   -3.9050   -1.2060    1.4360 H   0  0  0  0  0  0  0  0  0  0  0  0
   -5.3650   -1.3370   -1.7100 C   0  0  0  0  0  0  0  0  0  0  0  0
   -6.1140   -2.1160   -1.5250 H   0  0  0  0  0  0  0  0  0  0  0  0
   -5.0090   -1.4410   -2.7420 H   0  0  0  0  0  0  0  0  0  0  0  0
   -5.8640   -0.3620   -1.6540 H   0  0  0  0  0  0  0  0  0  0  0  0
   -4.7930    2.8170   -0.0320 C   0  0  0  0  0  0  0  0  0  0  0  0
   -5.2720    3.7730   -0.2680 H   0  0  0  0  0  0  0  0  0  0  0  0
   -5.4800    2.2350    0.5910 H   0  0  0  0  0  0  0  0  0  0  0  0
   -4.6680    2.2700   -0.9680 H   0  0  0  0  0  0  0  0  0  0  0  0
   -3.6810    3.7150    2.0500 C   0  0  0  0  0  0  0  0  0  0  0  0
   -4.2940    3.0860    2.7030 H   0  0  0  0  0  0  0  0  0  0  0  0
   -4.1760    4.6850    1.9340 H   0  0  0  0  0  0  0  0  0  0  0  0
   -2.7260    3.8890    2.5570 H   0  0  0  0  0  0  0  0  0  0  0  0
    0.3650   -3.4710    1.0420 C   0  0  0  0  0  0  0  0  0  0  0  0
    1.1760   -4.1610    1.2950 H   0  0  0  0  0  0  0  0  0  0  0  0
   -0.5700   -4.0370    1.0710 H   0  0  0  0  0  0  0  0  0  0  0  0
    0.3430   -2.6780    1.7980 H   0  0  0  0  0  0  0  0  0  0  0  0
  1  2  1  0  0  0  0
  1  4  1  0  0  0  0
  1  9  2  0  0  0  0
  2  3  2  0  0  0  0
  2 14  1  0  0  0  0
  3  5  1  0  0  0  0
  3 18  1  0  0  0  0
  4  8  1  0  0  0  0
  4 10  2  0  0  0  0
  5  8  1  0  0  0  0
  5 25  2  0  0  0  0
  6  7  2  0  0  0  0
  6 10  1  0  0  0  0
  6 13  1  0  0  0  0
  7  9  1  0  0  0  0
  7 11  1  0  0  0  0
  9 28  1  0  0  0  0
 10 15  1  0  0  0  0
 11 12  1  0  0  0  0
 11 19  2  0  0  0  0
 13 21  1  0  0  0  0
 14 24  1  0  0  0  0
 15 16  1  0  0  0  0
 15 17  1  0  0  0  0
 15 22  1  0  0  0  0
 18 29  2  0  0  0  0
 18 31  1  0  0  0  0
 19 20  1  0  0  0  0
 19 21  1  0  0  0  0
 21 44  1  0  0  0  0
 21 48  1  0  0  0  0
 22 23  1  0  0  0  0
 22 26  2  0  0  0  0
 24 27  2  0  0  0  0
 24 40  1  0  0  0  0
 26 52  1  0  0  0  0
 26 56  1  0  0  0  0
 28 60  1  0  0  0  0
 29 30  1  0  0  0  0
 29 36  1  0  0  0  0
 31 32  1  0  0  0  0
 31 34  2  0  0  0  0
 33 34  1  0  0  0  0
 33 36  2  0  0  0  0
 33 38  1  0  0  0  0
 34 35  1  0  0  0  0
 36 37  1  0  0  0  0
 38 39  1  0  0  0  0
 40 41  1  0  0  0  0
 40 42  1  0  0  0  0
 40 43  1  0  0  0  0
 44 45  1  0  0  0  0
 44 46  1  0  0  0  0
 44 47  1  0  0  0  0
 48 49  1  0  0  0  0
 48 50  1  0  0  0  0
 48 51  1  0  0  0  0
 52 53  1  0  0  0  0
 52 54  1  0  0  0  0
 52 55  1  0  0  0  0
 56 57  1  0  0  0  0
 56 58  1  0  0  0  0
 56 59  1  0  0  0  0
 60 61  1  0  0  0  0
 60 62  1  0  0  0  0
 60 63  1  0  0  0  0
M  END
>  <IDNUMBER>
AC-776/41252599

>  <NAME>
3-(4-hydroxyphenyl)-5-methoxy-8,8-dimethyl-10-(3-methyl-2-butenyl)-2-oxo-2H,8H-pyrano[3,2-g]chromen-4-yl acetate

>  <ADD_INFO>
http://www.specs.net/enter.php?specsid=AC-776/41252599

>  <H_ACCEPTORS>
3

>  <H_DONORS>
1

>  <ROTATABLE_BONDS>
6

>  <LOGP>
6.4899998

>  <LOGS>
-7.6399999

>  <TPSA>
91.290001

>  <PRICE>
N07

$$$$
AC-776/41252607
  MOE2011           3D

 49 52  0  0  0  0  0  0  0  0999 V2000
    2.1150    0.7260   -0.0150 C   0  0  0  0  0  0  0  0  0  0  0  0
   -0.2200    0.0530   -0.0770 C   0  0  0  0  0  0  0  0  0  0  0  0
    1.2490   -0.2950   -0.2800 C   0  0  0  0  0  0  0  0  0  0  0  0
    1.7090    2.1010    0.3730 C   0  0  0  0  0  0  0  0  0  0  0  0
   -1.3110   -0.8640   -0.1100 C   0  0  0  0  0  0  0  0  0  0  0  0
   -0.5770    1.3860    0.1310 C   0  0  0  0  0  0  0  0  0  0  0  0
   -2.6650   -0.4400   -0.0500 C   0  0  0  0  0  0  0  0  0  0  0  0
    0.3700    2.4020    0.3000 O   0  0  0  0  0  0  0  0  0  0  0  0
   -2.9450    0.9180    0.0920 C   0  0  0  0  0  0  0  0  0  0  0  0
   -1.9030    1.8250    0.2140 C   0  0  0  0  0  0  0  0  0  0  0  0
   -2.1170    2.8800    0.3620 H   0  0  0  0  0  0  0  0  0  0  0  0
   -4.2020    1.4540    0.1470 O   0  0  0  0  0  0  0  0  0  0  0  0
    3.5850    0.5040   -0.1360 C   0  0  0  0  0  0  0  0  0  0  0  0
   -3.7930   -1.4270   -0.1870 C   0  0  0  0  0  0  0  0  0  0  0  0
   -3.8780   -1.7230   -1.2390 H   0  0  0  0  0  0  0  0  0  0  0  0
   -3.5980   -2.3320    0.3960 H   0  0  0  0  0  0  0  0  0  0  0  0
   -5.2930    0.5990   -0.2350 C   0  0  0  0  0  0  0  0  0  0  0  0
    2.5190    2.9630    0.7070 O   0  0  0  0  0  0  0  0  0  0  0  0
    1.5770   -1.4520   -0.6850 O   0  5  0  0  0  0  0  0  0  0  0  0
    4.2770    0.9400   -1.2720 C   0  0  0  0  0  0  0  0  0  0  0  0
    3.7420    1.4200   -2.0870 H   0  0  0  0  0  0  0  0  0  0  0  0
    4.2950   -0.1240    0.8960 C   0  0  0  0  0  0  0  0  0  0  0  0
    3.7650   -0.4820    1.7750 H   0  0  0  0  0  0  0  0  0  0  0  0
   -1.1340   -2.2250   -0.2460 O   0  0  0  0  0  0  0  0  0  0  0  0
   -5.1020   -0.8250    0.3010 C   0  0  0  0  0  0  0  0  0  0  0  0
   -5.0740   -0.7950    1.3990 H   0  0  0  0  0  0  0  0  0  0  0  0
   -5.9400   -1.4730    0.0180 H   0  0  0  0  0  0  0  0  0  0  0  0
    6.3670    0.1340   -0.3330 C   0  0  0  0  0  0  0  0  0  0  0  0
    5.6580    0.7550   -1.3660 C   0  0  0  0  0  0  0  0  0  0  0  0
    6.1850    1.0970   -2.2520 H   0  0  0  0  0  0  0  0  0  0  0  0
    5.6790   -0.3090    0.7980 C   0  0  0  0  0  0  0  0  0  0  0  0
    6.1830   -0.8050    1.6200 H   0  0  0  0  0  0  0  0  0  0  0  0
    7.7130    0.0210   -0.5520 O   0  0  0  0  0  0  0  0  0  0  0  0
   -5.4590    0.6470   -1.7610 C   0  0  0  0  0  0  0  0  0  0  0  0
   -6.2980    0.0250   -2.0910 H   0  0  0  0  0  0  0  0  0  0  0  0
   -4.5570    0.3130   -2.2840 H   0  0  0  0  0  0  0  0  0  0  0  0
   -5.6370    1.6750   -2.0990 H   0  0  0  0  0  0  0  0  0  0  0  0
   -6.5480    1.2070    0.4100 C   0  0  0  0  0  0  0  0  0  0  0  0
   -7.4470    0.6320    0.1660 H   0  0  0  0  0  0  0  0  0  0  0  0
   -6.6970    2.2410    0.0790 H   0  0  0  0  0  0  0  0  0  0  0  0
   -6.4460    1.2460    1.5010 H   0  0  0  0  0  0  0  0  0  0  0  0
   -0.7590   -2.8100    1.0030 C   0  0  0  0  0  0  0  0  0  0  0  0
   -0.3430   -3.8010    0.7980 H   0  0  0  0  0  0  0  0  0  0  0  0
   -1.6440   -2.9400    1.6340 H   0  0  0  0  0  0  0  0  0  0  0  0
   -0.0090   -2.2310    1.5520 H   0  0  0  0  0  0  0  0  0  0  0  0
    8.4820   -0.5850    0.4800 C   0  0  0  0  0  0  0  0  0  0  0  0
    9.5280   -0.5890    0.1590 H   0  0  0  0  0  0  0  0  0  0  0  0
    8.1780   -1.6250    0.6400 H   0  0  0  0  0  0  0  0  0  0  0  0
    8.4210   -0.0070    1.4090 H   0  0  0  0  0  0  0  0  0  0  0  0
  1  3  2  0  0  0  0
  1  4  1  0  0  0  0
  1 13  1  0  0  0  0
  2  3  1  0  0  0  0
  2  5  2  0  0  0  0
  2  6  1  0  0  0  0
  3 19  1  0  0  0  0
  4  8  1  0  0  0  0
  4 18  2  0  0  0  0
  5  7  1  0  0  0  0
  5 24  1  0  0  0  0
  6  8  1  0  0  0  0
  6 10  2  0  0  0  0
  7  9  2  0  0  0  0
  7 14  1  0  0  0  0
  9 10  1  0  0  0  0
  9 12  1  0  0  0  0
 10 11  1  0  0  0  0
 12 17  1  0  0  0  0
 13 20  2  0  0  0  0
 13 22  1  0  0  0  0
 14 15  1  0  0  0  0
 14 16  1  0  0  0  0
 14 25  1  0  0  0  0
 17 25  1  0  0  0  0
 17 34  1  0  0  0  0
 17 38  1  0  0  0  0
 20 21  1  0  0  0  0
 20 29  1  0  0  0  0
 22 23  1  0  0  0  0
 22 31  2  0  0  0  0
 24 42  1  0  0  0  0
 25 26  1  0  0  0  0
 25 27  1  0  0  0  0
 28 29  2  0  0  0  0
 28 31  1  0  0  0  0
 28 33  1  0  0  0  0
 29 30  1  0  0  0  0
 31 32  1  0  0  0  0
 33 46  1  0  0  0  0
 34 35  1  0  0  0  0
 34 36  1  0  0  0  0
 34 37  1  0  0  0  0
 38 39  1  0  0  0  0
 38 40  1  0  0  0  0
 38 41  1  0  0  0  0
 42 43  1  0  0  0  0
 42 44  1  0  0  0  0
 42 45  1  0  0  0  0
 46 47  1  0  0  0  0
 46 48  1  0  0  0  0
 46 49  1  0  0  0  0
M  CHG  1  19  -1
M  END
>  <IDNUMBER>
AC-776/41252607

>  <NAME>
4-hydroxy-5-methoxy-3-(4-methoxyphenyl)-8,8-dimethyl-7,8-dihydro-2H,6H-pyrano[3,2-g]chromen-2-one

>  <ADD_INFO>
http://www.specs.net/enter.php?specsid=AC-776/41252607

>  <H_ACCEPTORS>
2

>  <H_DONORS>
1

>  <ROTATABLE_BONDS>
3

>  <LOGP>
4.3200002

>  <LOGS>
-5.1700001

>  <TPSA>
74.220001

>  <PRICE>
N07

$$$$
AC-776/41252613
  MOE2011           3D

 55 58  0  0  1  0  0  0  0  0999 V2000
   -0.3990    1.7390   -0.4930 C   0  0  1  0  0  0  0  0  0  0  0  0
    0.2110    1.3250    0.8230 C   0  0  1  0  0  0  0  0  0  0  0  0
   -1.8730    2.0150   -0.1790 C   0  0  1  0  0  0  0  0  0  0  0  0
    1.6410    1.8860    0.7930 C   0  0  1  0  0  0  0  0  0  0  0  0
   -2.9200    0.9090   -0.1660 C   0  0  0  0  0  0  0  0  0  0  0  0
    2.7190    0.8130    0.7020 C   0  0  0  0  0  0  0  0  0  0  0  0
    1.7100    2.7750   -0.3450 O   0  0  0  0  0  0  0  0  0  0  0  0
   -1.8270    2.5680    1.1550 O   0  0  0  0  0  0  0  0  0  0  0  0
   -4.2960    1.2060   -0.0900 C   0  0  0  0  0  0  0  0  0  0  0  0
    3.0650    0.0130    1.8040 C   0  0  0  0  0  0  0  0  0  0  0  0
    0.3740    3.0190   -0.8080 C   0  0  0  0  0  0  0  0  0  0  0  0
   -0.0050    3.9000   -0.2780 H   0  0  0  0  0  0  0  0  0  0  0  0
    0.4140    3.2400   -1.8790 H   0  0  0  0  0  0  0  0  0  0  0  0
    3.4160    0.5970   -0.5090 C   0  0  0  0  0  0  0  0  0  0  0  0
    3.1640    1.2220   -1.3610 H   0  0  0  0  0  0  0  0  0  0  0  0
   -2.5710   -0.4490   -0.1960 C   0  0  0  0  0  0  0  0  0  0  0  0
   -1.5320   -0.7610   -0.2570 H   0  0  0  0  0  0  0  0  0  0  0  0
   -0.6930    2.0140    1.8460 C   0  0  0  0  0  0  0  0  0  0  0  0
   -0.2050    2.8230    2.3980 H   0  0  0  0  0  0  0  0  0  0  0  0
   -1.0670    1.2910    2.5790 H   0  0  0  0  0  0  0  0  0  0  0  0
   -5.2700    0.1920   -0.0660 C   0  0  0  0  0  0  0  0  0  0  0  0
   -6.3150    0.4820   -0.0190 H   0  0  0  0  0  0  0  0  0  0  0  0
    4.0640   -0.9590    1.6960 C   0  0  0  0  0  0  0  0  0  0  0  0
    4.3290   -1.5760    2.5510 H   0  0  0  0  0  0  0  0  0  0  0  0
    4.4170   -0.3800   -0.6310 C   0  0  0  0  0  0  0  0  0  0  0  0
   -3.5390   -1.4640   -0.1450 C   0  0  0  0  0  0  0  0  0  0  0  0
   -4.9030   -1.1540   -0.1060 C   0  0  0  0  0  0  0  0  0  0  0  0
    4.7560   -1.1410    0.4950 C   0  0  0  0  0  0  0  0  0  0  0  0
   -0.1810    0.7960   -1.5310 O   0  0  0  0  0  0  0  0  0  0  0  0
    0.7790    0.7300   -1.6850 H   0  0  0  0  0  0  0  0  0  0  0  0
   -4.9560    2.9960   -0.0250 Br  0  0  0  0  0  0  0  0  0  0  0  0
    2.2360    0.2000    3.5060 Br  0  0  0  0  0  0  0  0  0  0  0  0
   -3.0460   -2.7450   -0.2050 O   0  0  0  0  0  0  0  0  0  0  0  0
    5.0800   -0.6570   -1.7970 O   0  0  0  0  0  0  0  0  0  0  0  0
   -5.7850   -2.2010   -0.1260 O   0  0  0  0  0  0  0  0  0  0  0  0
    5.7010   -2.1370    0.5330 O   0  0  0  0  0  0  0  0  0  0  0  0
   -3.4500   -3.5470    0.9030 C   0  0  0  0  0  0  0  0  0  0  0  0
   -2.6480   -4.2650    1.1040 H   0  0  0  0  0  0  0  0  0  0  0  0
   -4.3490   -4.1160    0.6500 H   0  0  0  0  0  0  0  0  0  0  0  0
   -3.6090   -2.9610    1.8160 H   0  0  0  0  0  0  0  0  0  0  0  0
    4.6880    0.0420   -2.9710 C   0  0  0  0  0  0  0  0  0  0  0  0
    5.2890   -0.3400   -3.8030 H   0  0  0  0  0  0  0  0  0  0  0  0
    4.8930    1.1130   -2.8780 H   0  0  0  0  0  0  0  0  0  0  0  0
    3.6360   -0.1430   -3.2100 H   0  0  0  0  0  0  0  0  0  0  0  0
   -7.1740   -1.9000   -0.1620 C   0  0  0  0  0  0  0  0  0  0  0  0
   -7.7210   -2.8470   -0.2090 H   0  0  0  0  0  0  0  0  0  0  0  0
   -7.4310   -1.3230   -1.0570 H   0  0  0  0  0  0  0  0  0  0  0  0
   -7.4870   -1.3790    0.7490 H   0  0  0  0  0  0  0  0  0  0  0  0
    6.9490   -1.7990   -0.0670 C   0  0  0  0  0  0  0  0  0  0  0  0
    7.7290   -2.3640    0.4530 H   0  0  0  0  0  0  0  0  0  0  0  0
    7.1900   -0.7340    0.0310 H   0  0  0  0  0  0  0  0  0  0  0  0
    6.9630   -2.1090   -1.1160 H   0  0  0  0  0  0  0  0  0  0  0  0
    0.1970    0.2420    0.9840 H   0  0  0  0  0  0  0  0  0  0  0  0
   -2.2220    2.7910   -0.8700 H   0  0  0  0  0  0  0  0  0  0  0  0
    1.8620    2.5090    1.6670 H   0  0  0  0  0  0  0  0  0  0  0  0
  1  2  1  0  0  0  0
  1  3  1  0  0  0  0
  1 11  1  0  0  0  0
  1 29  1  0  0  0  0
  2  4  1  0  0  0  0
  2 18  1  0  0  0  0
  2 53  1  0  0  0  0
  3  5  1  0  0  0  0
  3  8  1  0  0  0  0
  3 54  1  0  0  0  0
  4  6  1  0  0  0  0
  4  7  1  0  0  0  0
  4 55  1  0  0  0  0
  5  9  2  0  0  0  0
  5 16  1  0  0  0  0
  6 10  2  0  0  0  0
  6 14  1  0  0  0  0
  7 11  1  0  0  0  0
  8 18  1  0  0  0  0
  9 21  1  0  0  0  0
  9 31  1  0  0  0  0
 10 23  1  0  0  0  0
 10 32  1  0  0  0  0
 11 12  1  0  0  0  0
 11 13  1  0  0  0  0
 14 15  1  0  0  0  0
 14 25  2  0  0  0  0
 16 17  1  0  0  0  0
 16 26  2  0  0  0  0
 18 19  1  0  0  0  0
 18 20  1  0  0  0  0
 21 22  1  0  0  0  0
 21 27  2  0  0  0  0
 23 24  1  0  0  0  0
 23 28  2  0  0  0  0
 25 28  1  0  0  0  0
 25 34  1  0  0  0  0
 26 27  1  0  0  0  0
 26 33  1  0  0  0  0
 27 35  1  0  0  0  0
 28 36  1  0  0  0  0
 29 30  1  0  0  0  0
 33 37  1  0  0  0  0
 34 41  1  0  0  0  0
 35 45  1  0  0  0  0
 36 49  1  0  0  0  0
 37 38  1  0  0  0  0
 37 39  1  0  0  0  0
 37 40  1  0  0  0  0
 41 42  1  0  0  0  0
 41 43  1  0  0  0  0
 41 44  1  0  0  0  0
 45 46  1  0  0  0  0
 45 47  1  0  0  0  0
 45 48  1  0  0  0  0
 49 50  1  0  0  0  0
 49 51  1  0  0  0  0
 49 52  1  0  0  0  0
M  END
>  <IDNUMBER>
AC-776/41252613

>  <NAME>
Gmelinol, derivative of

>  <ADD_INFO>
http://www.specs.net/enter.php?specsid=AC-776/41252613

>  <H_ACCEPTORS>
3

>  <H_DONORS>
1

>  <ROTATABLE_BONDS>
6

>  <LOGP>
2.9000001

>  <LOGS>
-5.25

>  <TPSA>
75.610001

>  <PRICE>
N07

$$$$
AC-907/21098003
  MOE2011           3D

 18 19  0  0  0  0  0  0  0  0999 V2000
   -0.2610    0.7340    0.0030 C   0  0  0  0  0  0  0  0  0  0  0  0
   -0.1370   -0.6450    0.0020 C   0  0  0  0  0  0  0  0  0  0  0  0
   -1.3940    1.4520    0.0020 N   0  0  0  0  0  0  0  0  0  0  0  0
   -2.5220   -0.7060    0.0000 N   0  0  0  0  0  0  0  0  0  0  0  0
    1.1900   -1.0090    0.0020 N   0  0  0  0  0  0  0  0  0  0  0  0
    1.0180    1.2090    0.0030 N   0  0  0  0  0  0  0  0  0  0  0  0
    1.2800    2.1840    0.0040 H   0  0  0  0  0  0  0  0  0  0  0  0
   -1.3380   -1.3480    0.0010 C   0  0  0  0  0  0  0  0  0  0  0  0
   -2.4660    0.6400    0.0010 C   0  0  0  0  0  0  0  0  0  0  0  0
    1.8660    0.1260    0.0010 C   0  0  0  0  0  0  0  0  0  0  0  0
   -1.4170   -2.7120    0.0000 O   0  0  0  0  0  0  0  0  0  0  0  0
   -2.3800   -2.8450   -0.0010 H   0  0  0  0  0  0  0  0  0  0  0  0
   -3.6910    1.2380   -0.0010 O   0  0  0  0  0  0  0  0  0  0  0  0
   -4.2530    0.4450   -0.0030 H   0  0  0  0  0  0  0  0  0  0  0  0
    3.3390    0.2810   -0.0030 C   0  0  0  0  0  0  0  0  0  0  0  0
    3.8290   -0.6980   -0.0030 H   0  0  0  0  0  0  0  0  0  0  0  0
    3.6710    0.8280    0.8850 H   0  0  0  0  0  0  0  0  0  0  0  0
    3.6660    0.8270   -0.8930 H   0  0  0  0  0  0  0  0  0  0  0  0
  1  2  2  0  0  0  0
  1  3  1  0  0  0  0
  1  6  1  0  0  0  0
  2  5  1  0  0  0  0
  2  8  1  0  0  0  0
  3  9  2  0  0  0  0
  4  8  2  0  0  0  0
  4  9  1  0  0  0  0
  5 10  2  0  0  0  0
  6  7  1  0  0  0  0
  6 10  1  0  0  0  0
  8 11  1  0  0  0  0
  9 13  1  0  0  0  0
 10 15  1  0  0  0  0
 11 12  1  0  0  0  0
 13 14  1  0  0  0  0
 15 16  1  0  0  0  0
 15 17  1  0  0  0  0
 15 18  1  0  0  0  0
M  END
>  <IDNUMBER>
AC-907/21098003

>  <NAME>
8-methyl-xanthine

>  <ADD_INFO>
http://www.specs.net/enter.php?specsid=AC-907/21098003

>  <H_ACCEPTORS>
4

>  <H_DONORS>
3

>  <ROTATABLE_BONDS>
0

>  <LOGP>
0.27000001

>  <LOGS>
-1.95

>  <TPSA>
94.919998

>  <PRICE>
N05

$$$$
AC-907/21260004
  MOE2011           3D

 42 43  0  0  1  0  0  0  0  0999 V2000
   -0.5670   -0.3180   -0.4130 C   0  0  2  0  0  0  0  0  0  0  0  0
    0.8240   -0.8120    0.0450 C   0  0  0  0  0  0  0  0  0  0  0  0
    0.8600   -0.8670    1.1380 H   0  0  0  0  0  0  0  0  0  0  0  0
    1.0000   -1.8300   -0.3200 H   0  0  0  0  0  0  0  0  0  0  0  0
   -0.8050    1.1660    0.0300 C   0  0  1  0  0  0  0  0  0  0  0  0
   -1.7370   -1.2750   -0.0400 C   0  0  1  0  0  0  0  0  0  0  0  0
    1.9500    0.0870   -0.5060 C   0  0  2  0  0  0  0  0  0  0  0  0
    3.3350   -0.3870   -0.0840 C   0  0  0  0  0  0  0  0  0  0  0  0
    0.3270    2.0400   -0.5720 C   0  0  0  0  0  0  0  0  0  0  0  0
    0.2600    2.0260   -1.6690 H   0  0  0  0  0  0  0  0  0  0  0  0
    0.2000    3.0880   -0.2730 H   0  0  0  0  0  0  0  0  0  0  0  0
    1.7260    1.5690   -0.1680 C   0  0  0  0  0  0  0  0  0  0  0  0
    1.8790    1.7560    0.9010 H   0  0  0  0  0  0  0  0  0  0  0  0
    2.4700    2.1830   -0.6920 H   0  0  0  0  0  0  0  0  0  0  0  0
    4.2660   -0.7000   -1.0020 C   0  0  0  0  0  0  0  0  0  0  0  0
    4.0640   -0.6260   -2.0660 H   0  0  0  0  0  0  0  0  0  0  0  0
    5.2570   -1.0390   -0.7150 H   0  0  0  0  0  0  0  0  0  0  0  0
   -1.8130   -1.4160    1.3780 O   0  0  0  0  0  0  0  0  0  0  0  0
   -2.5840   -1.9700    1.5870 H   0  0  0  0  0  0  0  0  0  0  0  0
   -2.1610    1.6480   -0.5420 C   0  0  0  0  0  0  0  0  0  0  0  0
   -2.3760    2.6690   -0.2030 H   0  0  0  0  0  0  0  0  0  0  0  0
   -2.1010    1.6950   -1.6380 H   0  0  0  0  0  0  0  0  0  0  0  0
   -3.0720   -0.7120   -0.5700 C   0  0  0  0  0  0  0  0  0  0  0  0
   -3.0860   -0.7740   -1.6660 H   0  0  0  0  0  0  0  0  0  0  0  0
   -3.9090   -1.3190   -0.2040 H   0  0  0  0  0  0  0  0  0  0  0  0
   -0.8120    1.3780    1.5650 C   0  0  0  0  0  0  0  0  0  0  0  0
   -0.8790    2.4470    1.8030 H   0  0  0  0  0  0  0  0  0  0  0  0
    0.0940    1.0000    2.0480 H   0  0  0  0  0  0  0  0  0  0  0  0
   -1.6590    0.8990    2.0600 H   0  0  0  0  0  0  0  0  0  0  0  0
   -1.5390   -2.6850   -0.6170 C   0  0  0  0  0  0  0  0  0  0  0  0
   -1.3620   -2.6580   -1.6970 H   0  0  0  0  0  0  0  0  0  0  0  0
   -2.4240   -3.3060   -0.4330 H   0  0  0  0  0  0  0  0  0  0  0  0
   -0.7080   -3.2070   -0.1320 H   0  0  0  0  0  0  0  0  0  0  0  0
   -3.3280    0.7370   -0.1650 C   0  0  0  0  0  0  0  0  0  0  0  0
   -4.2370    1.0940   -0.6640 H   0  0  0  0  0  0  0  0  0  0  0  0
   -3.5300    0.7940    0.9100 H   0  0  0  0  0  0  0  0  0  0  0  0
    3.6430   -0.4970    1.3850 C   0  0  0  0  0  0  0  0  0  0  0  0
    3.4720    0.4560    1.8940 H   0  0  0  0  0  0  0  0  0  0  0  0
    4.6880   -0.7740    1.5630 H   0  0  0  0  0  0  0  0  0  0  0  0
    3.0210   -1.2640    1.8560 H   0  0  0  0  0  0  0  0  0  0  0  0
   -0.5350   -0.3110   -1.5150 H   0  0  0  0  0  0  0  0  0  0  0  0
    1.8890    0.0110   -1.6020 H   0  0  0  0  0  0  0  0  0  0  0  0
  1  2  1  0  0  0  0
  1  5  1  0  0  0  0
  1  6  1  0  0  0  0
  1 41  1  0  0  0  0
  2  3  1  0  0  0  0
  2  4  1  0  0  0  0
  2  7  1  0  0  0  0
  5  9  1  0  0  0  0
  5 20  1  0  0  0  0
  5 26  1  0  0  0  0
  6 18  1  0  0  0  0
  6 23  1  0  0  0  0
  6 30  1  0  0  0  0
  7  8  1  0  0  0  0
  7 12  1  0  0  0  0
  7 42  1  0  0  0  0
  8 15  2  0  0  0  0
  8 37  1  0  0  0  0
  9 10  1  0  0  0  0
  9 11  1  0  0  0  0
  9 12  1  0  0  0  0
 12 13  1  0  0  0  0
 12 14  1  0  0  0  0
 15 16  1  0  0  0  0
 15 17  1  0  0  0  0
 18 19  1  0  0  0  0
 20 21  1  0  0  0  0
 20 22  1  0  0  0  0
 20 34  1  0  0  0  0
 23 24  1  0  0  0  0
 23 25  1  0  0  0  0
 23 34  1  0  0  0  0
 26 27  1  0  0  0  0
 26 28  1  0  0  0  0
 26 29  1  0  0  0  0
 30 31  1  0  0  0  0
 30 32  1  0  0  0  0
 30 33  1  0  0  0  0
 34 35  1  0  0  0  0
 34 36  1  0  0  0  0
 37 38  1  0  0  0  0
 37 39  1  0  0  0  0
 37 40  1  0  0  0  0
M  END
>  <IDNUMBER>
AC-907/21260004

>  <NAME>
7-Epi-paradisiol

>  <ADD_INFO>
http://www.specs.net/enter.php?specsid=AC-907/21260004

>  <H_ACCEPTORS>
1

>  <H_DONORS>
1

>  <ROTATABLE_BONDS>
1

>  <LOGP>
4.8800001

>  <LOGS>
-4.48

>  <TPSA>
20.23

>  <PRICE>
N05

$$$$
AC-907/21260007
  MOE2011           3D

 43 45  0  0  1  0  0  0  0  0999 V2000
   -0.8660    0.1830    0.1860 C   0  0  3  0  0  0  0  0  0  0  0  0
   -2.2820    0.7060   -0.0060 C   0  0  0  0  0  0  0  0  0  0  0  0
   -1.1090    1.4280   -0.6260 C   0  0  3  0  0  0  0  0  0  0  0  0
   -0.0350   -0.7870   -0.5840 C   0  0  1  0  0  0  0  0  0  0  0  0
    1.4870   -0.3550   -0.5820 C   0  0  1  0  0  0  0  0  0  0  0  0
   -0.0570   -2.2290   -0.0330 C   0  0  2  0  0  0  0  0  0  0  0  0
   -0.2620    2.5490   -0.1590 C   0  0  0  0  0  0  0  0  0  0  0  0
   -0.6340    3.4840   -0.5930 H   0  0  0  0  0  0  0  0  0  0  0  0
   -0.2840    2.6730    0.9290 H   0  0  0  0  0  0  0  0  0  0  0  0
    1.9250    1.0680   -0.0520 C   0  0  1  0  0  0  0  0  0  0  0  0
    2.2060   -1.5020    0.1790 C   0  0  0  0  0  0  0  0  0  0  0  0
    2.6940   -2.1640   -0.5480 H   0  0  0  0  0  0  0  0  0  0  0  0
    2.9810   -1.1720    0.8760 H   0  0  0  0  0  0  0  0  0  0  0  0
    1.1790    2.3030   -0.6450 C   0  0  0  0  0  0  0  0  0  0  0  0
    1.7360    3.2110   -0.3770 H   0  0  0  0  0  0  0  0  0  0  0  0
    1.1980    2.2400   -1.7410 H   0  0  0  0  0  0  0  0  0  0  0  0
    1.1240   -2.2670    0.9260 C   0  0  0  0  0  0  0  0  0  0  0  0
    0.8890   -1.7600    1.8690 H   0  0  0  0  0  0  0  0  0  0  0  0
    1.4580   -3.2850    1.1510 H   0  0  0  0  0  0  0  0  0  0  0  0
   -2.9710    1.3420    1.1740 C   0  0  0  0  0  0  0  0  0  0  0  0
   -3.6710    2.1130    0.8340 H   0  0  0  0  0  0  0  0  0  0  0  0
   -2.2670    1.8090    1.8700 H   0  0  0  0  0  0  0  0  0  0  0  0
   -3.5350    0.5880    1.7330 H   0  0  0  0  0  0  0  0  0  0  0  0
   -3.2190   -0.0230   -0.9320 C   0  0  0  0  0  0  0  0  0  0  0  0
   -3.9480    0.6760   -1.3570 H   0  0  0  0  0  0  0  0  0  0  0  0
   -3.7690   -0.7980   -0.3870 H   0  0  0  0  0  0  0  0  0  0  0  0
   -2.6970   -0.5040   -1.7650 H   0  0  0  0  0  0  0  0  0  0  0  0
    0.2090   -3.1200   -1.1270 O   0  0  0  0  0  0  0  0  0  0  0  0
    0.2890   -4.0190   -0.7650 H   0  0  0  0  0  0  0  0  0  0  0  0
    1.8020    1.0960    1.3750 O   0  0  0  0  0  0  0  0  0  0  0  0
    2.1330    1.9550    1.6880 H   0  0  0  0  0  0  0  0  0  0  0  0
   -1.3560   -2.6840    0.6200 C   0  0  0  0  0  0  0  0  0  0  0  0
   -1.6330   -2.0650    1.4790 H   0  0  0  0  0  0  0  0  0  0  0  0
   -1.2700   -3.7200    0.9690 H   0  0  0  0  0  0  0  0  0  0  0  0
   -2.1770   -2.6740   -0.1050 H   0  0  0  0  0  0  0  0  0  0  0  0
    3.4260    1.2730   -0.3730 C   0  0  0  0  0  0  0  0  0  0  0  0
    3.6100    1.2470   -1.4530 H   0  0  0  0  0  0  0  0  0  0  0  0
    4.0600    0.5210    0.1050 H   0  0  0  0  0  0  0  0  0  0  0  0
    3.7800    2.2370    0.0120 H   0  0  0  0  0  0  0  0  0  0  0  0
   -0.3670   -0.8110   -1.6310 H   0  0  0  0  0  0  0  0  0  0  0  0
    1.8170   -0.4070   -1.6310 H   0  0  0  0  0  0  0  0  0  0  0  0
   -0.5110    0.2570    1.2120 H   0  0  0  0  0  0  0  0  0  0  0  0
   -1.0850    1.3840   -1.7140 H   0  0  0  0  0  0  0  0  0  0  0  0
  1  2  1  0  0  0  0
  1  3  1  0  0  0  0
  1  4  1  0  0  0  0
  1 42  1  0  0  0  0
  2  3  1  0  0  0  0
  2 20  1  0  0  0  0
  2 24  1  0  0  0  0
  3  7  1  0  0  0  0
  3 43  1  0  0  0  0
  4  5  1  0  0  0  0
  4  6  1  0  0  0  0
  4 40  1  0  0  0  0
  5 10  1  0  0  0  0
  5 11  1  0  0  0  0
  5 41  1  0  0  0  0
  6 17  1  0  0  0  0
  6 28  1  0  0  0  0
  6 32  1  0  0  0  0
  7  8  1  0  0  0  0
  7  9  1  0  0  0  0
  7 14  1  0  0  0  0
 10 14  1  0  0  0  0
 10 30  1  0  0  0  0
 10 36  1  0  0  0  0
 11 12  1  0  0  0  0
 11 13  1  0  0  0  0
 11 17  1  0  0  0  0
 14 15  1  0  0  0  0
 14 16  1  0  0  0  0
 17 18  1  0  0  0  0
 17 19  1  0  0  0  0
 20 21  1  0  0  0  0
 20 22  1  0  0  0  0
 20 23  1  0  0  0  0
 24 25  1  0  0  0  0
 24 26  1  0  0  0  0
 24 27  1  0  0  0  0
 28 29  1  0  0  0  0
 30 31  1  0  0  0  0
 32 33  1  0  0  0  0
 32 34  1  0  0  0  0
 32 35  1  0  0  0  0
 36 37  1  0  0  0  0
 36 38  1  0  0  0  0
 36 39  1  0  0  0  0
M  END
>  <IDNUMBER>
AC-907/21260007

>  <NAME>
Alloaromandendrane-4alpha,10beta-diol

>  <ADD_INFO>
http://www.specs.net/enter.php?specsid=AC-907/21260007

>  <H_ACCEPTORS>
2

>  <H_DONORS>
2

>  <ROTATABLE_BONDS>
0

>  <LOGP>
3.54

>  <LOGS>
-3.96

>  <TPSA>
40.459999

>  <PRICE>
N05

$$$$
AC-907/21260009
  MOE2011           3D

 38 40  0  0  1  0  0  0  0  0999 V2000
    1.6620    1.4600   -0.2250 C   0  0  0  0  0  0  0  0  0  0  0  0
    0.6450    0.4490    0.2490 C   0  0  3  0  0  0  0  0  0  0  0  0
    1.8180    0.0210   -0.6330 C   0  0  3  0  0  0  0  0  0  0  0  0
   -0.6210   -0.0770   -0.3380 C   0  0  2  0  0  0  0  0  0  0  0  0
    2.5430   -1.1160   -0.0370 C   0  0  0  0  0  0  0  0  0  0  0  0
   -1.9490    0.5430    0.1270 C   0  0  2  0  0  0  0  0  0  0  0  0
   -0.7530   -1.5620    0.0660 C   0  0  1  0  0  0  0  0  0  0  0  0
   -2.9690   -0.6170   -0.0040 C   0  0  0  0  0  0  0  0  0  0  0  0
   -3.4590   -0.8160    0.9570 H   0  0  0  0  0  0  0  0  0  0  0  0
   -3.7560   -0.4080   -0.7360 H   0  0  0  0  0  0  0  0  0  0  0  0
    1.7090   -2.3750    0.2060 C   0  0  0  0  0  0  0  0  0  0  0  0
    2.3260   -3.2180   -0.1280 H   0  0  0  0  0  0  0  0  0  0  0  0
    1.5680   -2.4750    1.2880 H   0  0  0  0  0  0  0  0  0  0  0  0
    3.7320   -1.0320    0.2430 O   0  0  0  0  0  0  0  0  0  0  0  0
   -2.1670   -1.8600   -0.4190 C   0  0  0  0  0  0  0  0  0  0  0  0
   -2.1910   -1.9730   -1.5100 H   0  0  0  0  0  0  0  0  0  0  0  0
   -2.5760   -2.7740    0.0230 H   0  0  0  0  0  0  0  0  0  0  0  0
    0.3410   -2.4800   -0.5120 C   0  0  0  0  0  0  0  0  0  0  0  0
    0.0000   -3.5180   -0.4100 H   0  0  0  0  0  0  0  0  0  0  0  0
    0.4640   -2.2960   -1.5860 H   0  0  0  0  0  0  0  0  0  0  0  0
    1.2230    2.4620   -1.2610 C   0  0  0  0  0  0  0  0  0  0  0  0
    0.6710    3.2800   -0.7870 H   0  0  0  0  0  0  0  0  0  0  0  0
    0.5750    2.0190   -2.0240 H   0  0  0  0  0  0  0  0  0  0  0  0
    2.0940    2.8850   -1.7730 H   0  0  0  0  0  0  0  0  0  0  0  0
    2.6310    2.0190    0.7850 C   0  0  0  0  0  0  0  0  0  0  0  0
    2.2120    2.9120    1.2610 H   0  0  0  0  0  0  0  0  0  0  0  0
    3.5700    2.2990    0.2950 H   0  0  0  0  0  0  0  0  0  0  0  0
    2.8660    1.3010    1.5780 H   0  0  0  0  0  0  0  0  0  0  0  0
   -2.3020    1.5910   -0.7750 O   0  0  0  0  0  0  0  0  0  0  0  0
   -3.1770    1.9280   -0.5160 H   0  0  0  0  0  0  0  0  0  0  0  0
   -1.9380    1.1210    1.5420 C   0  0  0  0  0  0  0  0  0  0  0  0
   -1.6470    0.3750    2.2890 H   0  0  0  0  0  0  0  0  0  0  0  0
   -2.9300    1.5020    1.8110 H   0  0  0  0  0  0  0  0  0  0  0  0
   -1.2560    1.9750    1.6130 H   0  0  0  0  0  0  0  0  0  0  0  0
   -0.5810   -0.0030   -1.4350 H   0  0  0  0  0  0  0  0  0  0  0  0
   -0.7370   -1.6620    1.1610 H   0  0  0  0  0  0  0  0  0  0  0  0
    0.6860    0.2490    1.3180 H   0  0  0  0  0  0  0  0  0  0  0  0
    1.6750   -0.1290   -1.7020 H   0  0  0  0  0  0  0  0  0  0  0  0
  1  2  1  0  0  0  0
  1  3  1  0  0  0  0
  1 21  1  0  0  0  0
  1 25  1  0  0  0  0
  2  3  1  0  0  0  0
  2  4  1  0  0  0  0
  2 37  1  0  0  0  0
  3  5  1  0  0  0  0
  3 38  1  0  0  0  0
  4  6  1  0  0  0  0
  4  7  1  0  0  0  0
  4 35  1  0  0  0  0
  5 11  1  0  0  0  0
  5 14  2  0  0  0  0
  6  8  1  0  0  0  0
  6 29  1  0  0  0  0
  6 31  1  0  0  0  0
  7 15  1  0  0  0  0
  7 18  1  0  0  0  0
  7 36  1  0  0  0  0
  8  9  1  0  0  0  0
  8 10  1  0  0  0  0
  8 15  1  0  0  0  0
 11 12  1  0  0  0  0
 11 13  1  0  0  0  0
 11 18  1  0  0  0  0
 15 16  1  0  0  0  0
 15 17  1  0  0  0  0
 18 19  1  0  0  0  0
 18 20  1  0  0  0  0
 21 22  1  0  0  0  0
 21 23  1  0  0  0  0
 21 24  1  0  0  0  0
 25 26  1  0  0  0  0
 25 27  1  0  0  0  0
 25 28  1  0  0  0  0
 29 30  1  0  0  0  0
 31 32  1  0  0  0  0
 31 33  1  0  0  0  0
 31 34  1  0  0  0  0
M  END
>  <IDNUMBER>
AC-907/21260009

>  <NAME>
10(14)-Aromadendrene-4,8-diol, derivative of

>  <ADD_INFO>
http://www.specs.net/enter.php?specsid=AC-907/21260009

>  <H_ACCEPTORS>
2

>  <H_DONORS>
1

>  <ROTATABLE_BONDS>
0

>  <LOGP>
2.51

>  <LOGS>
-2.45

>  <TPSA>
37.299999

>  <PRICE>
N05

$$$$
AC-907/21260010
  MOE2011           3D

 38 40  0  0  1  0  0  0  0  0999 V2000
    0.7250   -0.2080   -0.7070 C   0  0  3  0  0  0  0  0  0  0  0  0
    2.1490   -0.0550   -0.1680 C   0  0  0  0  0  0  0  0  0  0  0  0
    1.0600   -0.6970    0.6810 C   0  0  3  0  0  0  0  0  0  0  0  0
   -0.5680    0.5390   -0.8490 C   0  0  1  0  0  0  0  0  0  0  0  0
   -1.7760   -0.4670   -0.7020 C   0  0  1  0  0  0  0  0  0  0  0  0
   -1.6160   -1.5470    0.4170 C   0  0  0  0  0  0  0  0  0  0  0  0
    0.7910   -2.1500    0.9160 C   0  0  0  0  0  0  0  0  0  0  0  0
    1.6120   -2.7820    0.5630 H   0  0  0  0  0  0  0  0  0  0  0  0
    0.7210   -2.3160    1.9980 H   0  0  0  0  0  0  0  0  0  0  0  0
   -2.9670    0.4500   -0.4160 C   0  0  0  0  0  0  0  0  0  0  0  0
   -3.3230    0.9230   -1.3400 H   0  0  0  0  0  0  0  0  0  0  0  0
   -3.8230   -0.0690    0.0260 H   0  0  0  0  0  0  0  0  0  0  0  0
   -1.0120    1.8140   -0.0880 C   0  0  1  0  0  0  0  0  0  0  0  0
   -0.5190   -2.5920    0.2590 C   0  0  0  0  0  0  0  0  0  0  0  0
   -0.8640   -3.5320    0.7040 H   0  0  0  0  0  0  0  0  0  0  0  0
   -0.3750   -2.8030   -0.8050 H   0  0  0  0  0  0  0  0  0  0  0  0
   -2.3820    1.4860    0.5240 C   0  0  0  0  0  0  0  0  0  0  0  0
   -2.2700    1.0760    1.5350 H   0  0  0  0  0  0  0  0  0  0  0  0
   -3.0210    2.3720    0.5930 H   0  0  0  0  0  0  0  0  0  0  0  0
   -2.3380   -1.5720    1.4170 O   0  0  0  0  0  0  0  0  0  0  0  0
   -1.9980   -1.1460   -1.9360 O   0  0  0  0  0  0  0  0  0  0  0  0
   -2.8890   -1.5370   -1.9070 H   0  0  0  0  0  0  0  0  0  0  0  0
    3.2030   -0.9530   -0.7850 C   0  0  0  0  0  0  0  0  0  0  0  0
    3.9520   -1.2270   -0.0350 H   0  0  0  0  0  0  0  0  0  0  0  0
    3.7100   -0.4320   -1.6050 H   0  0  0  0  0  0  0  0  0  0  0  0
    2.7850   -1.8760   -1.1980 H   0  0  0  0  0  0  0  0  0  0  0  0
    2.7040    1.2820    0.2260 C   0  0  0  0  0  0  0  0  0  0  0  0
    3.7980    1.2480    0.2980 H   0  0  0  0  0  0  0  0  0  0  0  0
    2.3540    1.6000    1.2110 H   0  0  0  0  0  0  0  0  0  0  0  0
    2.4580    2.0360   -0.5270 H   0  0  0  0  0  0  0  0  0  0  0  0
   -0.1450    2.5320    0.9210 C   0  0  0  0  0  0  0  0  0  0  0  0
   -0.6990    3.3710    1.3620 H   0  0  0  0  0  0  0  0  0  0  0  0
    0.7290    2.9740    0.4430 H   0  0  0  0  0  0  0  0  0  0  0  0
    0.1550    1.8930    1.7520 H   0  0  0  0  0  0  0  0  0  0  0  0
   -0.5550    0.8490   -1.9060 H   0  0  0  0  0  0  0  0  0  0  0  0
    0.7240   -0.9210   -1.5390 H   0  0  0  0  0  0  0  0  0  0  0  0
    0.7230   -0.1270    1.5390 H   0  0  0  0  0  0  0  0  0  0  0  0
   -1.2130    2.5630   -0.8710 H   0  0  0  0  0  0  0  0  0  0  0  0
  1  2  1  0  0  0  0
  1  3  1  0  0  0  0
  1  4  1  0  0  0  0
  1 36  1  0  0  0  0
  2  3  1  0  0  0  0
  2 23  1  0  0  0  0
  2 27  1  0  0  0  0
  3  7  1  0  0  0  0
  3 37  1  0  0  0  0
  4  5  1  0  0  0  0
  4 13  1  0  0  0  0
  4 35  1  0  0  0  0
  5  6  1  0  0  0  0
  5 10  1  0  0  0  0
  5 21  1  0  0  0  0
  6 14  1  0  0  0  0
  6 20  2  0  0  0  0
  7  8  1  0  0  0  0
  7  9  1  0  0  0  0
  7 14  1  0  0  0  0
 10 11  1  0  0  0  0
 10 12  1  0  0  0  0
 10 17  1  0  0  0  0
 13 17  1  0  0  0  0
 13 31  1  0  0  0  0
 13 38  1  0  0  0  0
 14 15  1  0  0  0  0
 14 16  1  0  0  0  0
 17 18  1  0  0  0  0
 17 19  1  0  0  0  0
 21 22  1  0  0  0  0
 23 24  1  0  0  0  0
 23 25  1  0  0  0  0
 23 26  1  0  0  0  0
 27 28  1  0  0  0  0
 27 29  1  0  0  0  0
 27 30  1  0  0  0  0
 31 32  1  0  0  0  0
 31 33  1  0  0  0  0
 31 34  1  0  0  0  0
M  END
>  <IDNUMBER>
AC-907/21260010

>  <NAME>
10(14)-Aromadendren-1-ol, derivative of

>  <ADD_INFO>
http://www.specs.net/enter.php?specsid=AC-907/21260010

>  <H_ACCEPTORS>
2

>  <H_DONORS>
1

>  <ROTATABLE_BONDS>
0

>  <LOGP>
3.4200001

>  <LOGS>
-3.24

>  <TPSA>
37.299999

>  <PRICE>
N05

$$$$
AC-907/21260021
  MOE2011           3D

 41 41  0  0  1  0  0  0  0  0999 V2000
    1.6720    1.1570    0.6270 C   0  0  0  0  0  0  0  0  0  0  0  0
   -2.4460    0.7590    0.5130 C   0  0  0  0  0  0  0  0  0  0  0  0
    1.5820   -1.4060    0.1690 C   0  0  0  0  0  0  0  0  0  0  0  0
    1.1930   -0.2140    1.0780 C   0  0  0  0  0  0  0  0  0  0  0  0
    1.5650   -0.3650    2.1010 H   0  0  0  0  0  0  0  0  0  0  0  0
    0.1250   -0.1190    1.2070 H   0  0  0  0  0  0  0  0  0  0  0  0
   -0.7520   -2.6590    0.3700 C   0  0  0  0  0  0  0  0  0  0  0  0
   -1.1860   -3.6500    0.2250 H   0  0  0  0  0  0  0  0  0  0  0  0
    0.5690   -2.5590    0.1270 C   0  0  0  0  0  0  0  0  0  0  0  0
    1.0230   -3.4950   -0.2130 H   0  0  0  0  0  0  0  0  0  0  0  0
    2.8150    1.5360    0.8850 O   0  0  0  0  0  0  0  0  0  0  0  0
    0.6830    2.0090   -0.1870 C   0  0  1  0  0  0  0  0  0  0  0  0
   -1.8800    2.0750    0.0010 C   0  0  0  0  0  0  0  0  0  0  0  0
   -1.8280    2.0590   -1.0920 H   0  0  0  0  0  0  0  0  0  0  0  0
   -2.6200    2.8450    0.2560 H   0  0  0  0  0  0  0  0  0  0  0  0
   -3.2040    0.7390    1.4840 O   0  0  0  0  0  0  0  0  0  0  0  0
   -0.5390    2.4400    0.6540 C   0  0  0  0  0  0  0  0  0  0  0  0
   -0.4920    2.0270    1.6690 H   0  0  0  0  0  0  0  0  0  0  0  0
   -0.5210    3.5310    0.7790 H   0  0  0  0  0  0  0  0  0  0  0  0
   -2.0400   -0.5230   -0.2090 C   0  0  1  0  0  0  0  0  0  0  0  0
   -1.7620   -1.6370    0.8180 C   0  0  0  0  0  0  0  0  0  0  0  0
   -1.4570   -1.2440    1.7950 H   0  0  0  0  0  0  0  0  0  0  0  0
   -2.7000   -2.1680    1.0340 H   0  0  0  0  0  0  0  0  0  0  0  0
    2.9130   -1.9770    0.7190 C   0  0  0  0  0  0  0  0  0  0  0  0
    3.6930   -1.2070    0.7440 H   0  0  0  0  0  0  0  0  0  0  0  0
    3.2890   -2.8000    0.0990 H   0  0  0  0  0  0  0  0  0  0  0  0
    2.7900   -2.3640    1.7370 H   0  0  0  0  0  0  0  0  0  0  0  0
    1.8320   -1.0100   -1.3010 C   0  0  0  0  0  0  0  0  0  0  0  0
    2.6160   -0.2500   -1.3940 H   0  0  0  0  0  0  0  0  0  0  0  0
    0.9250   -0.6290   -1.7810 H   0  0  0  0  0  0  0  0  0  0  0  0
    2.1630   -1.8720   -1.8950 H   0  0  0  0  0  0  0  0  0  0  0  0
    1.3900    3.2250   -0.7890 C   0  0  0  0  0  0  0  0  0  0  0  0
    0.7040    3.7980   -1.4220 H   0  0  0  0  0  0  0  0  0  0  0  0
    2.2380    2.9140   -1.4090 H   0  0  0  0  0  0  0  0  0  0  0  0
    1.7760    3.8910   -0.0100 H   0  0  0  0  0  0  0  0  0  0  0  0
   -3.1290   -0.9130   -1.2030 C   0  0  0  0  0  0  0  0  0  0  0  0
   -2.8500   -1.8160   -1.7550 H   0  0  0  0  0  0  0  0  0  0  0  0
   -3.2970   -0.1100   -1.9290 H   0  0  0  0  0  0  0  0  0  0  0  0
   -4.0830   -1.1000   -0.6980 H   0  0  0  0  0  0  0  0  0  0  0  0
    0.3630    1.3900   -1.0300 H   0  0  0  0  0  0  0  0  0  0  0  0
   -1.1320   -0.3050   -0.7760 H   0  0  0  0  0  0  0  0  0  0  0  0
  1  4  1  0  0  0  0
  1 11  2  0  0  0  0
  1 12  1  0  0  0  0
  2 13  1  0  0  0  0
  2 16  2  0  0  0  0
  2 20  1  0  0  0  0
  3  4  1  0  0  0  0
  3  9  1  0  0  0  0
  3 24  1  0  0  0  0
  3 28  1  0  0  0  0
  4  5  1  0  0  0  0
  4  6  1  0  0  0  0
  7  8  1  0  0  0  0
  7  9  2  0  0  0  0
  7 21  1  0  0  0  0
  9 10  1  0  0  0  0
 12 17  1  0  0  0  0
 12 32  1  0  0  0  0
 12 40  1  0  0  0  0
 13 14  1  0  0  0  0
 13 15  1  0  0  0  0
 13 17  1  0  0  0  0
 17 18  1  0  0  0  0
 17 19  1  0  0  0  0
 20 21  1  0  0  0  0
 20 36  1  0  0  0  0
 20 41  1  0  0  0  0
 21 22  1  0  0  0  0
 21 23  1  0  0  0  0
 24 25  1  0  0  0  0
 24 26  1  0  0  0  0
 24 27  1  0  0  0  0
 28 29  1  0  0  0  0
 28 30  1  0  0  0  0
 28 31  1  0  0  0  0
 32 33  1  0  0  0  0
 32 34  1  0  0  0  0
 32 35  1  0  0  0  0
 36 37  1  0  0  0  0
 36 38  1  0  0  0  0
 36 39  1  0  0  0  0
M  END
>  <IDNUMBER>
AC-907/21260021

>  <NAME>
9-Humulene-2,6-dione

>  <ADD_INFO>
http://www.specs.net/enter.php?specsid=AC-907/21260021

>  <H_ACCEPTORS>
2

>  <H_DONORS>
0

>  <ROTATABLE_BONDS>
0

>  <LOGP>
3.02

>  <LOGS>
-3.51

>  <TPSA>
34.139999

>  <PRICE>
N05

$$$$
AC-907/21260025
  MOE2011           3D

 41 43  0  0  1  0  0  0  0  0999 V2000
    0.7640    0.0210    0.6230 C   0  0  3  0  0  0  0  0  0  0  0  0
    2.2140    0.1770    0.1630 C   0  0  0  0  0  0  0  0  0  0  0  0
    1.6220   -1.2040    0.3910 C   0  0  3  0  0  0  0  0  0  0  0  0
   -0.4190    0.3330   -0.2780 C   0  0  1  0  0  0  0  0  0  0  0  0
   -1.5580   -0.7460   -0.1990 C   0  0  1  0  0  0  0  0  0  0  0  0
   -1.1190    1.6620    0.1080 C   0  0  2  0  0  0  0  0  0  0  0  0
   -1.1050   -2.0630    0.4730 C   0  0  0  0  0  0  0  0  0  0  0  0
    1.1850   -2.1630   -0.6700 C   0  0  0  0  0  0  0  0  0  0  0  0
    0.9700   -1.6650   -1.6190 H   0  0  0  0  0  0  0  0  0  0  0  0
    1.9970   -2.8700   -0.8770 H   0  0  0  0  0  0  0  0  0  0  0  0
   -2.7040   -0.0640    0.6060 C   0  0  0  0  0  0  0  0  0  0  0  0
   -3.5480    0.1850   -0.0510 H   0  0  0  0  0  0  0  0  0  0  0  0
   -3.1210   -0.6750    1.4120 H   0  0  0  0  0  0  0  0  0  0  0  0
   -2.1260    1.2310    1.1690 C   0  0  0  0  0  0  0  0  0  0  0  0
   -1.6400    1.0380    2.1320 H   0  0  0  0  0  0  0  0  0  0  0  0
   -2.9190    1.9700    1.3240 H   0  0  0  0  0  0  0  0  0  0  0  0
   -0.0520   -2.9310   -0.2120 C   0  0  0  0  0  0  0  0  0  0  0  0
    0.2590   -3.6910    0.5170 H   0  0  0  0  0  0  0  0  0  0  0  0
   -0.5130   -3.4630   -1.0490 H   0  0  0  0  0  0  0  0  0  0  0  0
   -1.5970   -2.4530    1.5370 O   0  0  0  0  0  0  0  0  0  0  0  0
    2.5650    0.6280   -1.2330 C   0  0  0  0  0  0  0  0  0  0  0  0
    3.5920    0.3300   -1.4750 H   0  0  0  0  0  0  0  0  0  0  0  0
    2.5060    1.7190   -1.3010 H   0  0  0  0  0  0  0  0  0  0  0  0
    1.9230    0.2140   -2.0130 H   0  0  0  0  0  0  0  0  0  0  0  0
    3.1910    0.6880    1.1980 C   0  0  0  0  0  0  0  0  0  0  0  0
    4.2010    0.3270    0.9800 H   0  0  0  0  0  0  0  0  0  0  0  0
    2.9290    0.3580    2.2090 H   0  0  0  0  0  0  0  0  0  0  0  0
    3.2060    1.7830    1.1970 H   0  0  0  0  0  0  0  0  0  0  0  0
   -1.8290    2.1370   -1.0430 O   0  0  0  0  0  0  0  0  0  0  0  0
   -2.3540    2.9110   -0.7730 H   0  0  0  0  0  0  0  0  0  0  0  0
   -2.0940   -1.1000   -1.6000 C   0  0  0  0  0  0  0  0  0  0  0  0
   -2.5180   -0.2260   -2.1060 H   0  0  0  0  0  0  0  0  0  0  0  0
   -2.8800   -1.8620   -1.5350 H   0  0  0  0  0  0  0  0  0  0  0  0
   -1.3090   -1.4970   -2.2510 H   0  0  0  0  0  0  0  0  0  0  0  0
   -0.2050    2.7910    0.5730 C   0  0  0  0  0  0  0  0  0  0  0  0
    0.3280    2.5500    1.4970 H   0  0  0  0  0  0  0  0  0  0  0  0
   -0.7830    3.7050    0.7530 H   0  0  0  0  0  0  0  0  0  0  0  0
    0.5290    3.0370   -0.2010 H   0  0  0  0  0  0  0  0  0  0  0  0
   -0.0880    0.4140   -1.3190 H   0  0  0  0  0  0  0  0  0  0  0  0
    0.5340    0.2090    1.6690 H   0  0  0  0  0  0  0  0  0  0  0  0
    1.9650   -1.7430    1.2710 H   0  0  0  0  0  0  0  0  0  0  0  0
  1  2  1  0  0  0  0
  1  3  1  0  0  0  0
  1  4  1  0  0  0  0
  1 40  1  0  0  0  0
  2  3  1  0  0  0  0
  2 21  1  0  0  0  0
  2 25  1  0  0  0  0
  3  8  1  0  0  0  0
  3 41  1  0  0  0  0
  4  5  1  0  0  0  0
  4  6  1  0  0  0  0
  4 39  1  0  0  0  0
  5  7  1  0  0  0  0
  5 11  1  0  0  0  0
  5 31  1  0  0  0  0
  6 14  1  0  0  0  0
  6 29  1  0  0  0  0
  6 35  1  0  0  0  0
  7 17  1  0  0  0  0
  7 20  2  0  0  0  0
  8  9  1  0  0  0  0
  8 10  1  0  0  0  0
  8 17  1  0  0  0  0
 11 12  1  0  0  0  0
 11 13  1  0  0  0  0
 11 14  1  0  0  0  0
 14 15  1  0  0  0  0
 14 16  1  0  0  0  0
 17 18  1  0  0  0  0
 17 19  1  0  0  0  0
 21 22  1  0  0  0  0
 21 23  1  0  0  0  0
 21 24  1  0  0  0  0
 25 26  1  0  0  0  0
 25 27  1  0  0  0  0
 25 28  1  0  0  0  0
 29 30  1  0  0  0  0
 31 32  1  0  0  0  0
 31 33  1  0  0  0  0
 31 34  1  0  0  0  0
 35 36  1  0  0  0  0
 35 37  1  0  0  0  0
 35 38  1  0  0  0  0
M  END
>  <IDNUMBER>
AC-907/21260025

>  <NAME>
4,10-Aromadendranediol, derivative of

>  <ADD_INFO>
http://www.specs.net/enter.php?specsid=AC-907/21260025

>  <H_ACCEPTORS>
2

>  <H_DONORS>
1

>  <ROTATABLE_BONDS>
0

>  <LOGP>
2.96

>  <LOGS>
-2.9400001

>  <TPSA>
37.299999

>  <PRICE>
N05

$$$$
AC-907/21260027
  MOE2011           3D

 43 45  0  0  1  0  0  0  0  0999 V2000
    0.9760    0.3480    0.9240 C   0  0  3  0  0  0  0  0  0  0  0  0
    2.3970    0.4040    0.3530 C   0  0  0  0  0  0  0  0  0  0  0  0
    1.3370    1.4300   -0.0610 C   0  0  3  0  0  0  0  0  0  0  0  0
   -0.1960   -0.5780    0.7320 C   0  0  1  0  0  0  0  0  0  0  0  0
   -1.5710    0.1770    0.6500 C   0  0  2  0  0  0  0  0  0  0  0  0
   -0.3130   -1.8180   -0.1920 C   0  0  2  0  0  0  0  0  0  0  0  0
    0.6730    1.5020   -1.3900 C   0  0  0  0  0  0  0  0  0  0  0  0
    1.1610    2.2920   -1.9750 H   0  0  0  0  0  0  0  0  0  0  0  0
    0.8330    0.6030   -1.9790 H   0  0  0  0  0  0  0  0  0  0  0  0
   -2.4980   -0.7990   -0.1190 C   0  0  0  0  0  0  0  0  0  0  0  0
   -3.5140   -0.8380    0.2880 H   0  0  0  0  0  0  0  0  0  0  0  0
   -2.5890   -0.5160   -1.1730 H   0  0  0  0  0  0  0  0  0  0  0  0
   -1.5400    1.6030    0.0260 C   0  0  1  0  0  0  0  0  0  0  0  0
   -1.8090   -2.1540   -0.0060 C   0  0  0  0  0  0  0  0  0  0  0  0
   -2.1860   -2.8690   -0.7460 H   0  0  0  0  0  0  0  0  0  0  0  0
   -1.9880   -2.6040    0.9790 H   0  0  0  0  0  0  0  0  0  0  0  0
   -0.8250    1.8070   -1.3180 C   0  0  0  0  0  0  0  0  0  0  0  0
   -1.3510    1.2680   -2.1160 H   0  0  0  0  0  0  0  0  0  0  0  0
   -0.9560    2.8630   -1.5970 H   0  0  0  0  0  0  0  0  0  0  0  0
    2.9340   -0.6160   -0.6080 C   0  0  0  0  0  0  0  0  0  0  0  0
    4.0310   -0.6410   -0.5760 H   0  0  0  0  0  0  0  0  0  0  0  0
    2.6860   -0.3900   -1.6470 H   0  0  0  0  0  0  0  0  0  0  0  0
    2.6030   -1.6210   -0.3440 H   0  0  0  0  0  0  0  0  0  0  0  0
    3.4660    0.9000    1.3090 C   0  0  0  0  0  0  0  0  0  0  0  0
    4.2830    1.3730    0.7530 H   0  0  0  0  0  0  0  0  0  0  0  0
    3.8760    0.0640    1.8860 H   0  0  0  0  0  0  0  0  0  0  0  0
    3.0780    1.6390    2.0190 H   0  0  0  0  0  0  0  0  0  0  0  0
    0.4650   -2.8910    0.3420 O   0  0  0  0  0  0  0  0  0  0  0  0
    0.2280   -3.7030   -0.1380 H   0  0  0  0  0  0  0  0  0  0  0  0
   -2.1420    0.3250    2.0900 C   0  0  0  0  0  0  0  0  0  0  0  0
   -2.2390   -0.6470    2.5880 H   0  0  0  0  0  0  0  0  0  0  0  0
   -3.1370    0.7840    2.0850 H   0  0  0  0  0  0  0  0  0  0  0  0
   -1.4880    0.9500    2.7090 H   0  0  0  0  0  0  0  0  0  0  0  0
   -2.8970    2.0440   -0.1450 O   0  0  0  0  0  0  0  0  0  0  0  0
   -2.8720    2.9820   -0.4000 H   0  0  0  0  0  0  0  0  0  0  0  0
   -0.0480   -1.7430   -1.6920 C   0  0  0  0  0  0  0  0  0  0  0  0
   -0.6160   -0.9610   -2.1960 H   0  0  0  0  0  0  0  0  0  0  0  0
   -0.3320   -2.6910   -2.1700 H   0  0  0  0  0  0  0  0  0  0  0  0
    1.0070   -1.6390   -1.9300 H   0  0  0  0  0  0  0  0  0  0  0  0
   -0.1900   -1.0670    1.7230 H   0  0  0  0  0  0  0  0  0  0  0  0
    0.9120    0.7000    1.9590 H   0  0  0  0  0  0  0  0  0  0  0  0
    1.4460    2.4340    0.3450 H   0  0  0  0  0  0  0  0  0  0  0  0
   -1.0960    2.2950    0.7530 H   0  0  0  0  0  0  0  0  0  0  0  0
  1  2  1  0  0  0  0
  1  3  1  0  0  0  0
  1  4  1  0  0  0  0
  1 41  1  0  0  0  0
  2  3  1  0  0  0  0
  2 20  1  0  0  0  0
  2 24  1  0  0  0  0
  3  7  1  0  0  0  0
  3 42  1  0  0  0  0
  4  5  1  0  0  0  0
  4  6  1  0  0  0  0
  4 40  1  0  0  0  0
  5 10  1  0  0  0  0
  5 13  1  0  0  0  0
  5 30  1  0  0  0  0
  6 14  1  0  0  0  0
  6 28  1  0  0  0  0
  6 36  1  0  0  0  0
  7  8  1  0  0  0  0
  7  9  1  0  0  0  0
  7 17  1  0  0  0  0
 10 11  1  0  0  0  0
 10 12  1  0  0  0  0
 10 14  1  0  0  0  0
 13 17  1  0  0  0  0
 13 34  1  0  0  0  0
 13 43  1  0  0  0  0
 14 15  1  0  0  0  0
 14 16  1  0  0  0  0
 17 18  1  0  0  0  0
 17 19  1  0  0  0  0
 20 21  1  0  0  0  0
 20 22  1  0  0  0  0
 20 23  1  0  0  0  0
 24 25  1  0  0  0  0
 24 26  1  0  0  0  0
 24 27  1  0  0  0  0
 28 29  1  0  0  0  0
 30 31  1  0  0  0  0
 30 32  1  0  0  0  0
 30 33  1  0  0  0  0
 34 35  1  0  0  0  0
 36 37  1  0  0  0  0
 36 38  1  0  0  0  0
 36 39  1  0  0  0  0
M  END
>  <IDNUMBER>
AC-907/21260027

>  <NAME>
4,10-Aromadendranediol, derivative of

>  <ADD_INFO>
http://www.specs.net/enter.php?specsid=AC-907/21260027

>  <H_ACCEPTORS>
2

>  <H_DONORS>
2

>  <ROTATABLE_BONDS>
0

>  <LOGP>
3.54

>  <LOGS>
-3.96

>  <TPSA>
40.459999

>  <PRICE>
N05

$$$$
AC-907/21260029
  MOE2011           3D

 38 40  0  0  1  0  0  0  0  0999 V2000
   -0.6940   -0.1860    0.5520 C   0  0  3  0  0  0  0  0  0  0  0  0
   -2.0990   -0.5980    0.1030 C   0  0  0  0  0  0  0  0  0  0  0  0
   -1.7740    0.8630    0.3660 C   0  0  3  0  0  0  0  0  0  0  0  0
    0.5110   -0.2790   -0.3640 C   0  0  1  0  0  0  0  0  0  0  0  0
    1.2670    1.0520   -0.6180 C   0  0  1  0  0  0  0  0  0  0  0  0
    1.5990   -1.2950    0.0840 C   0  0  2  0  0  0  0  0  0  0  0  0
   -1.5760    1.9250   -0.6680 C   0  0  0  0  0  0  0  0  0  0  0  0
   -1.2940    1.5130   -1.6400 H   0  0  0  0  0  0  0  0  0  0  0  0
   -2.5210    2.4590   -0.8220 H   0  0  0  0  0  0  0  0  0  0  0  0
    0.7890    2.2330    0.2170 C   0  0  0  0  0  0  0  0  0  0  0  0
    2.7580    0.7360   -0.4420 C   0  0  0  0  0  0  0  0  0  0  0  0
    3.3720    1.2670   -1.1780 H   0  0  0  0  0  0  0  0  0  0  0  0
    3.1300    1.0160    0.5500 H   0  0  0  0  0  0  0  0  0  0  0  0
    2.8500   -0.7700   -0.6250 C   0  0  0  0  0  0  0  0  0  0  0  0
    3.7800   -1.1810   -0.2180 H   0  0  0  0  0  0  0  0  0  0  0  0
    2.8270   -1.0300   -1.6910 H   0  0  0  0  0  0  0  0  0  0  0  0
   -0.5060    2.9140   -0.2060 C   0  0  0  0  0  0  0  0  0  0  0  0
   -0.8800    3.4800    0.6560 H   0  0  0  0  0  0  0  0  0  0  0  0
   -0.2760    3.6250   -1.0050 H   0  0  0  0  0  0  0  0  0  0  0  0
    1.4400    2.6720    1.1670 O   0  0  0  0  0  0  0  0  0  0  0  0
   -2.3800   -1.0690   -1.3020 C   0  0  0  0  0  0  0  0  0  0  0  0
   -3.4520   -0.9880   -1.5170 H   0  0  0  0  0  0  0  0  0  0  0  0
   -2.0930   -2.1210   -1.4080 H   0  0  0  0  0  0  0  0  0  0  0  0
   -1.8570   -0.5040   -2.0760 H   0  0  0  0  0  0  0  0  0  0  0  0
   -2.9410   -1.3170    1.1320 C   0  0  0  0  0  0  0  0  0  0  0  0
   -4.0050   -1.1490    0.9380 H   0  0  0  0  0  0  0  0  0  0  0  0
   -2.7290   -0.9730    2.1510 H   0  0  0  0  0  0  0  0  0  0  0  0
   -2.7470   -2.3940    1.0960 H   0  0  0  0  0  0  0  0  0  0  0  0
    1.2790   -2.5910   -0.4180 O   0  0  0  0  0  0  0  0  0  0  0  0
    2.0180   -3.1860   -0.2050 H   0  0  0  0  0  0  0  0  0  0  0  0
    1.8340   -1.4130    1.5930 C   0  0  0  0  0  0  0  0  0  0  0  0
    1.9660   -0.4390    2.0740 H   0  0  0  0  0  0  0  0  0  0  0  0
    2.7280   -2.0150    1.7970 H   0  0  0  0  0  0  0  0  0  0  0  0
    1.0080   -1.9410    2.0820 H   0  0  0  0  0  0  0  0  0  0  0  0
    0.1690   -0.6200   -1.3490 H   0  0  0  0  0  0  0  0  0  0  0  0
    1.1250    1.3420   -1.6680 H   0  0  0  0  0  0  0  0  0  0  0  0
   -0.4290   -0.3350    1.5930 H   0  0  0  0  0  0  0  0  0  0  0  0
   -2.1980    1.2970    1.2690 H   0  0  0  0  0  0  0  0  0  0  0  0
  1  2  1  0  0  0  0
  1  3  1  0  0  0  0
  1  4  1  0  0  0  0
  1 37  1  0  0  0  0
  2  3  1  0  0  0  0
  2 21  1  0  0  0  0
  2 25  1  0  0  0  0
  3  7  1  0  0  0  0
  3 38  1  0  0  0  0
  4  5  1  0  0  0  0
  4  6  1  0  0  0  0
  4 35  1  0  0  0  0
  5 10  1  0  0  0  0
  5 11  1  0  0  0  0
  5 36  1  0  0  0  0
  6 14  1  0  0  0  0
  6 29  1  0  0  0  0
  6 31  1  0  0  0  0
  7  8  1  0  0  0  0
  7  9  1  0  0  0  0
  7 17  1  0  0  0  0
 10 17  1  0  0  0  0
 10 20  2  0  0  0  0
 11 12  1  0  0  0  0
 11 13  1  0  0  0  0
 11 14  1  0  0  0  0
 14 15  1  0  0  0  0
 14 16  1  0  0  0  0
 17 18  1  0  0  0  0
 17 19  1  0  0  0  0
 21 22  1  0  0  0  0
 21 23  1  0  0  0  0
 21 24  1  0  0  0  0
 25 26  1  0  0  0  0
 25 27  1  0  0  0  0
 25 28  1  0  0  0  0
 29 30  1  0  0  0  0
 31 32  1  0  0  0  0
 31 33  1  0  0  0  0
 31 34  1  0  0  0  0
M  END
>  <IDNUMBER>
AC-907/21260029

>  <NAME>
4,10-Aromadendranediol, derivative of

>  <ADD_INFO>
http://www.specs.net/enter.php?specsid=AC-907/21260029

>  <H_ACCEPTORS>
2

>  <H_DONORS>
1

>  <ROTATABLE_BONDS>
0

>  <LOGP>
2.51

>  <LOGS>
-2.45

>  <TPSA>
37.299999

>  <PRICE>
N05

$$$$
AC-907/21260040
  MOE2011           3D

 66 67  0  0  1  0  0  0  0  0999 V2000
   -1.2200   -1.7260   -0.3210 C   0  0  1  0  0  0  0  0  0  0  0  0
   -2.0700   -0.4490    0.0780 C   0  0  1  0  0  0  0  0  0  0  0  0
    0.0580   -1.2100   -1.2940 C   0  0  1  0  0  0  0  0  0  0  0  0
   -0.4140   -0.1770   -2.4010 C   0  0  0  0  0  0  0  0  0  0  0  0
   -2.3320    0.9310   -0.8030 C   0  0  2  0  0  0  0  0  0  0  0  0
   -1.1210    1.1410   -1.9220 C   0  0  0  0  0  0  0  0  0  0  0  0
   -1.5420    1.6900   -2.7720 H   0  0  0  0  0  0  0  0  0  0  0  0
   -0.3580    1.7910   -1.4750 H   0  0  0  0  0  0  0  0  0  0  0  0
   -2.3490    2.1040    0.0240 O   0  0  0  0  0  0  0  0  0  0  0  0
   -2.7980   -0.4250    1.3920 C   0  0  0  0  0  0  0  0  0  0  0  0
    1.2220   -0.6010   -0.4700 C   0  0  0  0  0  0  0  0  0  0  0  0
    0.8430    0.2230    0.1470 H   0  0  0  0  0  0  0  0  0  0  0  0
    1.5990   -1.3610    0.2180 H   0  0  0  0  0  0  0  0  0  0  0  0
   -2.9260    3.2140   -0.5140 C   0  0  0  0  0  0  0  0  0  0  0  0
    3.8080    1.9520    1.4280 C   0  0  0  0  0  0  0  0  0  0  0  0
    3.6840    0.2790   -0.5290 C   0  0  1  0  0  0  0  0  0  0  0  0
    3.1870    1.1730    0.5230 O   0  0  0  0  0  0  0  0  0  0  0  0
   -0.2570   -0.4390   -3.7090 C   0  0  0  0  0  0  0  0  0  0  0  0
    0.2140   -1.3550   -4.0500 H   0  0  0  0  0  0  0  0  0  0  0  0
   -0.5940    0.2580   -4.4700 H   0  0  0  0  0  0  0  0  0  0  0  0
    4.4340   -0.9110    0.0470 C   0  0  0  0  0  0  0  0  0  0  0  0
    5.3150   -0.6870    0.6420 H   0  0  0  0  0  0  0  0  0  0  0  0
   -3.4360    3.2930   -1.6220 O   0  0  0  0  0  0  0  0  0  0  0  0
    3.1990    2.8670    1.9790 O   0  0  0  0  0  0  0  0  0  0  0  0
   -0.7190   -2.4470    0.9370 C   0  0  0  0  0  0  0  0  0  0  0  0
   -0.1540   -3.3480    0.6690 H   0  0  0  0  0  0  0  0  0  0  0  0
   -0.0190   -1.8060    1.4800 H   0  0  0  0  0  0  0  0  0  0  0  0
    4.1940   -2.2170   -0.1420 C   0  0  0  0  0  0  0  0  0  0  0  0
    4.8370   -2.9630    0.3170 H   0  0  0  0  0  0  0  0  0  0  0  0
    3.3780   -2.5900   -0.7490 H   0  0  0  0  0  0  0  0  0  0  0  0
    2.4000   -0.0990   -1.3340 C   0  0  0  0  0  0  0  0  0  0  0  0
    2.0560    0.8020   -1.8590 H   0  0  0  0  0  0  0  0  0  0  0  0
    2.6430   -0.8360   -2.1110 H   0  0  0  0  0  0  0  0  0  0  0  0
   -2.0810   -2.6780   -1.1890 C   0  0  0  0  0  0  0  0  0  0  0  0
   -1.4890   -3.5380   -1.5210 H   0  0  0  0  0  0  0  0  0  0  0  0
   -2.4610   -2.1710   -2.0820 H   0  0  0  0  0  0  0  0  0  0  0  0
   -2.9480   -3.0680   -0.6510 H   0  0  0  0  0  0  0  0  0  0  0  0
   -3.0410   -1.8870    1.8800 C   0  0  0  0  0  0  0  0  0  0  0  0
   -3.5010   -1.8840    2.8780 H   0  0  0  0  0  0  0  0  0  0  0  0
   -3.7950   -2.3520    1.2300 H   0  0  0  0  0  0  0  0  0  0  0  0
   -1.8230   -2.8070    1.9220 C   0  0  0  0  0  0  0  0  0  0  0  0
   -2.1570   -3.8360    1.7410 H   0  0  0  0  0  0  0  0  0  0  0  0
   -1.4020   -2.8090    2.9350 H   0  0  0  0  0  0  0  0  0  0  0  0
   -1.9820    0.3120    2.4720 C   0  0  0  0  0  0  0  0  0  0  0  0
   -2.4570    0.2160    3.4550 H   0  0  0  0  0  0  0  0  0  0  0  0
   -1.8950    1.3830    2.2690 H   0  0  0  0  0  0  0  0  0  0  0  0
   -0.9660   -0.0820    2.5610 H   0  0  0  0  0  0  0  0  0  0  0  0
   -4.2160    0.1930    1.3180 C   0  0  0  0  0  0  0  0  0  0  0  0
   -4.7860   -0.0210    2.2310 H   0  0  0  0  0  0  0  0  0  0  0  0
   -4.7820   -0.2210    0.4750 H   0  0  0  0  0  0  0  0  0  0  0  0
   -4.2090    1.2800    1.2240 H   0  0  0  0  0  0  0  0  0  0  0  0
   -2.8490    4.3460    0.4650 C   0  0  0  0  0  0  0  0  0  0  0  0
   -3.3920    4.0840    1.3770 H   0  0  0  0  0  0  0  0  0  0  0  0
   -3.3110    5.2350    0.0260 H   0  0  0  0  0  0  0  0  0  0  0  0
   -1.8040    4.5710    0.6890 H   0  0  0  0  0  0  0  0  0  0  0  0
    5.2170    1.6380    1.8140 C   0  0  0  0  0  0  0  0  0  0  0  0
    5.8890    1.6380    0.9590 H   0  0  0  0  0  0  0  0  0  0  0  0
    5.2530    0.6950    2.3620 H   0  0  0  0  0  0  0  0  0  0  0  0
    5.5750    2.4220    2.4910 H   0  0  0  0  0  0  0  0  0  0  0  0
    4.5970    1.0590   -1.4920 C   0  0  0  0  0  0  0  0  0  0  0  0
    4.7870    0.4880   -2.4080 H   0  0  0  0  0  0  0  0  0  0  0  0
    5.5720    1.2900   -1.0550 H   0  0  0  0  0  0  0  0  0  0  0  0
    4.1450    2.0180   -1.7690 H   0  0  0  0  0  0  0  0  0  0  0  0
   -1.6100   -0.2850   -0.8040 H   0  0  0  0  0  0  0  0  0  0  0  0
    0.4480   -2.1080   -1.7930 H   0  0  0  0  0  0  0  0  0  0  0  0
   -3.2860    0.8100   -1.3430 H   0  0  0  0  0  0  0  0  0  0  0  0
  1  2  1  0  0  0  0
  1  3  1  0  0  0  0
  1 25  1  0  0  0  0
  1 34  1  0  0  0  0
  2  5  1  0  0  0  0
  2 10  1  0  0  0  0
  2 64  1  0  0  0  0
  3  4  1  0  0  0  0
  3 11  1  0  0  0  0
  3 65  1  0  0  0  0
  4  6  1  0  0  0  0
  4 18  2  0  0  0  0
  5  6  1  0  0  0  0
  5  9  1  0  0  0  0
  5 66  1  0  0  0  0
  6  7  1  0  0  0  0
  6  8  1  0  0  0  0
  9 14  1  0  0  0  0
 10 38  1  0  0  0  0
 10 44  1  0  0  0  0
 10 48  1  0  0  0  0
 11 12  1  0  0  0  0
 11 13  1  0  0  0  0
 11 31  1  0  0  0  0
 14 23  2  0  0  0  0
 14 52  1  0  0  0  0
 15 17  1  0  0  0  0
 15 24  2  0  0  0  0
 15 56  1  0  0  0  0
 16 17  1  0  0  0  0
 16 21  1  0  0  0  0
 16 31  1  0  0  0  0
 16 60  1  0  0  0  0
 18 19  1  0  0  0  0
 18 20  1  0  0  0  0
 21 22  1  0  0  0  0
 21 28  2  0  0  0  0
 25 26  1  0  0  0  0
 25 27  1  0  0  0  0
 25 41  1  0  0  0  0
 28 29  1  0  0  0  0
 28 30  1  0  0  0  0
 31 32  1  0  0  0  0
 31 33  1  0  0  0  0
 34 35  1  0  0  0  0
 34 36  1  0  0  0  0
 34 37  1  0  0  0  0
 38 39  1  0  0  0  0
 38 40  1  0  0  0  0
 38 41  1  0  0  0  0
 41 42  1  0  0  0  0
 41 43  1  0  0  0  0
 44 45  1  0  0  0  0
 44 46  1  0  0  0  0
 44 47  1  0  0  0  0
 48 49  1  0  0  0  0
 48 50  1  0  0  0  0
 48 51  1  0  0  0  0
 52 53  1  0  0  0  0
 52 54  1  0  0  0  0
 52 55  1  0  0  0  0
 56 57  1  0  0  0  0
 56 58  1  0  0  0  0
 56 59  1  0  0  0  0
 60 61  1  0  0  0  0
 60 62  1  0  0  0  0
 60 63  1  0  0  0  0
M  END
>  <IDNUMBER>
AC-907/21260040

>  <NAME>
8(17),14-Labdadien-13-ol, derivative of

>  <ADD_INFO>
http://www.specs.net/enter.php?specsid=AC-907/21260040

>  <H_ACCEPTORS>
4

>  <H_DONORS>
0

>  <ROTATABLE_BONDS>
8

>  <LOGP>
7.5700002

>  <LOGS>
-8.5100002

>  <TPSA>
52.599998

>  <PRICE>
N05

$$$$
AE-508/21131014
  MOE2011           3D

 49 52  0  0  1  0  0  0  0  0999 V2000
    1.5110   -1.4020    0.3630 N   0  3  3  0  0  0  0  0  0  0  0  0
    0.9670   -1.9680    1.0260 H   0  0  0  0  0  0  0  0  0  0  0  0
    0.6340   -0.2380   -0.1520 C   0  0  1  0  0  0  0  0  0  0  0  0
   -1.2860    1.3260    0.4540 C   0  0  0  0  0  0  0  0  0  0  0  0
   -0.1540    0.4580    0.9950 C   0  0  2  0  0  0  0  0  0  0  0  0
   -2.5810    0.8030    0.1660 C   0  0  0  0  0  0  0  0  0  0  0  0
    1.5510    0.6730   -0.9900 C   0  0  0  0  0  0  0  0  0  0  0  0
    1.0540    0.8920   -1.9440 H   0  0  0  0  0  0  0  0  0  0  0  0
    1.7030    1.6420   -0.5060 H   0  0  0  0  0  0  0  0  0  0  0  0
    2.7680   -0.9260    1.0820 C   0  0  0  0  0  0  0  0  0  0  0  0
    2.4630   -0.3280    1.9420 H   0  0  0  0  0  0  0  0  0  0  0  0
    3.2630   -1.8240    1.4700 H   0  0  0  0  0  0  0  0  0  0  0  0
    2.9090   -0.0100   -1.2590 C   0  0  1  0  0  0  0  0  0  0  0  0
    3.6810   -0.1860    0.0770 C   0  0  1  0  0  0  0  0  0  0  0  0
    1.9060   -2.2870   -0.8070 C   0  0  0  0  0  0  0  0  0  0  0  0
    2.5440   -3.0850   -0.4140 H   0  0  0  0  0  0  0  0  0  0  0  0
    0.9910   -2.7340   -1.2110 H   0  0  0  0  0  0  0  0  0  0  0  0
   -3.5430    1.7050   -0.3530 C   0  0  0  0  0  0  0  0  0  0  0  0
   -3.2850    3.0000   -0.5840 N   0  0  0  0  0  0  0  0  0  0  0  0
   -2.9680   -0.5520    0.3600 C   0  0  0  0  0  0  0  0  0  0  0  0
   -2.2510   -1.2620    0.7510 H   0  0  0  0  0  0  0  0  0  0  0  0
    4.2850    1.0510    0.7070 C   0  0  0  0  0  0  0  0  0  0  0  0
    4.7360    0.9060    1.6900 H   0  0  0  0  0  0  0  0  0  0  0  0
    2.6310   -1.4160   -1.8340 C   0  0  0  0  0  0  0  0  0  0  0  0
    3.5680   -1.9020   -2.1310 H   0  0  0  0  0  0  0  0  0  0  0  0
    2.0250   -1.3350   -2.7450 H   0  0  0  0  0  0  0  0  0  0  0  0
   -4.8180    1.2440   -0.6470 C   0  0  0  0  0  0  0  0  0  0  0  0
   -5.5560    1.9390   -1.0420 H   0  0  0  0  0  0  0  0  0  0  0  0
    4.3650    2.2810    0.1850 C   0  0  0  0  0  0  0  0  0  0  0  0
    4.8440    3.0820    0.7420 H   0  0  0  0  0  0  0  0  0  0  0  0
    3.9780    2.5340   -0.7950 H   0  0  0  0  0  0  0  0  0  0  0  0
    0.7150    1.2260    1.8300 O   0  0  0  0  0  0  0  0  0  0  0  0
    0.1580    1.7210    2.4580 H   0  0  0  0  0  0  0  0  0  0  0  0
   -4.2570   -0.9960    0.0560 C   0  0  0  0  0  0  0  0  0  0  0  0
   -2.0520    3.4630   -0.3130 C   0  0  0  0  0  0  0  0  0  0  0  0
   -1.8980    4.5180   -0.5240 H   0  0  0  0  0  0  0  0  0  0  0  0
   -5.1790   -0.0890   -0.4490 C   0  0  0  0  0  0  0  0  0  0  0  0
   -6.1880   -0.4140   -0.6910 H   0  0  0  0  0  0  0  0  0  0  0  0
   -1.0360    2.6810    0.1940 C   0  0  0  0  0  0  0  0  0  0  0  0
   -0.0650    3.1310    0.3790 H   0  0  0  0  0  0  0  0  0  0  0  0
   -4.7280   -2.2700    0.2020 O   0  0  0  0  0  0  0  0  0  0  0  0
   -3.8500   -3.2320    0.7710 C   0  0  0  0  0  0  0  0  0  0  0  0
   -4.3910   -4.1810    0.8400 H   0  0  0  0  0  0  0  0  0  0  0  0
   -3.5520   -2.9450    1.7850 H   0  0  0  0  0  0  0  0  0  0  0  0
   -2.9750   -3.3930    0.1330 H   0  0  0  0  0  0  0  0  0  0  0  0
   -0.0950   -0.7210   -0.8160 H   0  0  0  0  0  0  0  0  0  0  0  0
    3.4910    0.5690   -1.9840 H   0  0  0  0  0  0  0  0  0  0  0  0
   -0.5730   -0.3040    1.6600 H   0  0  0  0  0  0  0  0  0  0  0  0
    4.5400   -0.8430   -0.1250 H   0  0  0  0  0  0  0  0  0  0  0  0
  1  2  1  0  0  0  0
  1  3  1  0  0  0  0
  1 10  1  0  0  0  0
  1 15  1  0  0  0  0
  3  5  1  0  0  0  0
  3  7  1  0  0  0  0
  3 46  1  0  0  0  0
  4  5  1  0  0  0  0
  4  6  1  0  0  0  0
  4 39  2  0  0  0  0
  5 32  1  0  0  0  0
  5 48  1  0  0  0  0
  6 18  2  0  0  0  0
  6 20  1  0  0  0  0
  7  8  1  0  0  0  0
  7  9  1  0  0  0  0
  7 13  1  0  0  0  0
 10 11  1  0  0  0  0
 10 12  1  0  0  0  0
 10 14  1  0  0  0  0
 13 14  1  0  0  0  0
 13 24  1  0  0  0  0
 13 47  1  0  0  0  0
 14 22  1  0  0  0  0
 14 49  1  0  0  0  0
 15 16  1  0  0  0  0
 15 17  1  0  0  0  0
 15 24  1  0  0  0  0
 18 19  1  0  0  0  0
 18 27  1  0  0  0  0
 19 35  2  0  0  0  0
 20 21  1  0  0  0  0
 20 34  2  0  0  0  0
 22 23  1  0  0  0  0
 22 29  2  0  0  0  0
 24 25  1  0  0  0  0
 24 26  1  0  0  0  0
 27 28  1  0  0  0  0
 27 37  2  0  0  0  0
 29 30  1  0  0  0  0
 29 31  1  0  0  0  0
 32 33  1  0  0  0  0
 34 37  1  0  0  0  0
 34 41  1  0  0  0  0
 35 36  1  0  0  0  0
 35 39  1  0  0  0  0
 37 38  1  0  0  0  0
 39 40  1  0  0  0  0
 41 42  1  0  0  0  0
 42 43  1  0  0  0  0
 42 44  1  0  0  0  0
 42 45  1  0  0  0  0
M  CHG  1   1   1
M  END
>  <IDNUMBER>
AE-508/21131014

>  <NAME>
Quinine

>  <ADD_INFO>
http://www.specs.net/enter.php?specsid=AE-508/21131014

>  <H_ACCEPTORS>
3

>  <H_DONORS>
1

>  <ROTATABLE_BONDS>
4

>  <LOGP>
3.4400001

>  <LOGS>
-3.5

>  <TPSA>
45.59

>  <PRICE>
N07

>  <SALTDATA>
2 H2SO4

$$$$
AE-508/21131018
  MOE2011           3D

 53 57  0  0  1  0  0  0  0  0999 V2000
    1.8720    0.1030   -0.4710 C   0  0  0  0  0  0  0  0  0  0  0  0
    2.9750   -0.6810   -0.1950 C   0  0  0  0  0  0  0  0  0  0  0  0
    2.2370    1.4150   -0.3280 N   0  0  0  0  0  0  0  0  0  0  0  0
    1.6470    2.2230   -0.4790 H   0  0  0  0  0  0  0  0  0  0  0  0
    0.5330   -0.3960   -0.8940 C   0  0  1  0  0  0  0  0  0  0  0  0
   -1.9980   -0.2430   -0.6440 C   0  0  1  0  0  0  0  0  0  0  0  0
    0.4340   -1.8780   -0.5370 N   0  3  3  0  0  0  0  0  0  0  0  0
    0.4580   -1.9310    0.4890 H   0  0  0  0  0  0  0  0  0  0  0  0
   -3.2090    0.4610    0.0130 C   0  0  2  0  0  0  0  0  0  0  0  0
   -0.6310    0.3400   -0.2240 C   0  0  0  0  0  0  0  0  0  0  0  0
   -0.5170    0.3180    0.8670 H   0  0  0  0  0  0  0  0  0  0  0  0
   -0.5820    1.3960   -0.5170 H   0  0  0  0  0  0  0  0  0  0  0  0
    4.0460    0.1850    0.1550 C   0  0  0  0  0  0  0  0  0  0  0  0
    3.5560    1.4910    0.0650 C   0  0  0  0  0  0  0  0  0  0  0  0
   -2.0520   -1.7660   -0.3830 C   0  0  1  0  0  0  0  0  0  0  0  0
   -3.1440    1.9670   -0.1840 C   0  0  0  0  0  0  0  0  0  0  0  0
   -0.8540   -2.4880   -1.0120 C   0  0  0  0  0  0  0  0  0  0  0  0
   -0.8690   -2.4090   -2.1050 H   0  0  0  0  0  0  0  0  0  0  0  0
   -0.8420   -3.5470   -0.7310 H   0  0  0  0  0  0  0  0  0  0  0  0
    2.9250   -2.1700   -0.2620 C   0  0  0  0  0  0  0  0  0  0  0  0
    2.9110   -2.5670    0.7600 H   0  0  0  0  0  0  0  0  0  0  0  0
    3.8180   -2.5650   -0.7580 H   0  0  0  0  0  0  0  0  0  0  0  0
    1.6680   -2.6510   -1.0140 C   0  0  0  0  0  0  0  0  0  0  0  0
    1.4900   -3.7130   -0.8160 H   0  0  0  0  0  0  0  0  0  0  0  0
    1.7470   -2.4890   -2.0950 H   0  0  0  0  0  0  0  0  0  0  0  0
   -3.3690    0.1320    1.5020 C   0  0  2  0  0  0  0  0  0  0  0  0
   -2.5290    2.7390    0.5410 O   0  0  0  0  0  0  0  0  0  0  0  0
   -2.1860   -2.0790    1.1190 C   0  0  0  0  0  0  0  0  0  0  0  0
   -2.2920   -3.1620    1.2610 H   0  0  0  0  0  0  0  0  0  0  0  0
   -1.2880   -1.7800    1.6710 H   0  0  0  0  0  0  0  0  0  0  0  0
   -3.3920   -1.3790    1.7340 C   0  0  0  0  0  0  0  0  0  0  0  0
   -3.4350   -1.5860    2.8100 H   0  0  0  0  0  0  0  0  0  0  0  0
   -4.3150   -1.8030    1.3180 H   0  0  0  0  0  0  0  0  0  0  0  0
   -3.8140    2.3180   -1.3190 O   0  0  0  0  0  0  0  0  0  0  0  0
   -4.6140    0.6620    1.9540 O   0  0  0  0  0  0  0  0  0  0  0  0
   -4.6640    0.5250    2.9170 H   0  0  0  0  0  0  0  0  0  0  0  0
    5.3860   -0.0090    0.5420 C   0  0  0  0  0  0  0  0  0  0  0  0
    5.8020   -1.0100    0.6220 H   0  0  0  0  0  0  0  0  0  0  0  0
    4.3450    2.6140    0.3450 C   0  0  0  0  0  0  0  0  0  0  0  0
    3.9460    3.6210    0.2720 H   0  0  0  0  0  0  0  0  0  0  0  0
   -3.8170    3.7200   -1.5940 C   0  0  0  0  0  0  0  0  0  0  0  0
   -4.3880    3.8840   -2.5120 H   0  0  0  0  0  0  0  0  0  0  0  0
   -2.7960    4.0800   -1.7510 H   0  0  0  0  0  0  0  0  0  0  0  0
   -4.3010    4.2680   -0.7800 H   0  0  0  0  0  0  0  0  0  0  0  0
    6.1870    1.1040    0.8260 C   0  0  0  0  0  0  0  0  0  0  0  0
    7.2220    0.9590    1.1250 H   0  0  0  0  0  0  0  0  0  0  0  0
    5.6700    2.3940    0.7290 C   0  0  0  0  0  0  0  0  0  0  0  0
    6.3080    3.2460    0.9560 H   0  0  0  0  0  0  0  0  0  0  0  0
    0.4520   -0.3330   -1.9870 H   0  0  0  0  0  0  0  0  0  0  0  0
   -2.0830   -0.0880   -1.7300 H   0  0  0  0  0  0  0  0  0  0  0  0
   -2.9540   -2.1570   -0.8740 H   0  0  0  0  0  0  0  0  0  0  0  0
   -4.1260    0.1190   -0.4910 H   0  0  0  0  0  0  0  0  0  0  0  0
   -2.5730    0.5940    2.0960 H   0  0  0  0  0  0  0  0  0  0  0  0
  1  2  2  0  0  0  0
  1  3  1  0  0  0  0
  1  5  1  0  0  0  0
  2 13  1  0  0  0  0
  2 20  1  0  0  0  0
  3  4  1  0  0  0  0
  3 14  1  0  0  0  0
  5  7  1  0  0  0  0
  5 10  1  0  0  0  0
  5 49  1  0  0  0  0
  6  9  1  0  0  0  0
  6 10  1  0  0  0  0
  6 15  1  0  0  0  0
  6 50  1  0  0  0  0
  7  8  1  0  0  0  0
  7 17  1  0  0  0  0
  7 23  1  0  0  0  0
  9 16  1  0  0  0  0
  9 26  1  0  0  0  0
  9 52  1  0  0  0  0
 10 11  1  0  0  0  0
 10 12  1  0  0  0  0
 13 14  2  0  0  0  0
 13 37  1  0  0  0  0
 14 39  1  0  0  0  0
 15 17  1  0  0  0  0
 15 28  1  0  0  0  0
 15 51  1  0  0  0  0
 16 27  2  0  0  0  0
 16 34  1  0  0  0  0
 17 18  1  0  0  0  0
 17 19  1  0  0  0  0
 20 21  1  0  0  0  0
 20 22  1  0  0  0  0
 20 23  1  0  0  0  0
 23 24  1  0  0  0  0
 23 25  1  0  0  0  0
 26 31  1  0  0  0  0
 26 35  1  0  0  0  0
 26 53  1  0  0  0  0
 28 29  1  0  0  0  0
 28 30  1  0  0  0  0
 28 31  1  0  0  0  0
 31 32  1  0  0  0  0
 31 33  1  0  0  0  0
 34 41  1  0  0  0  0
 35 36  1  0  0  0  0
 37 38  1  0  0  0  0
 37 45  2  0  0  0  0
 39 40  1  0  0  0  0
 39 47  2  0  0  0  0
 41 42  1  0  0  0  0
 41 43  1  0  0  0  0
 41 44  1  0  0  0  0
 45 46  1  0  0  0  0
 45 47  1  0  0  0  0
 47 48  1  0  0  0  0
M  CHG  1   7   1
M  END
>  <IDNUMBER>
AE-508/21131018

>  <NAME>
Yohimbine

>  <ADD_INFO>
http://www.specs.net/enter.php?specsid=AE-508/21131018

>  <H_ACCEPTORS>
5

>  <H_DONORS>
2

>  <ROTATABLE_BONDS>
2

>  <LOGP>
2.73

>  <LOGS>
-3.1099999

>  <TPSA>
65.559998

>  <PRICE>
N07

$$$$
AE-508/21132023
  MOE2011           3D

 47 51  0  0  1  0  0  0  0  0999 V2000
    0.3270    1.2670   -0.1120 N   0  3  3  0  0  0  0  0  0  0  0  0
    0.3200    1.2420   -1.1400 H   0  0  0  0  0  0  0  0  0  0  0  0
   -1.9000    0.0990   -0.0200 C   0  0  0  0  0  0  0  0  0  0  0  0
    0.9800   -0.0250    0.3660 C   0  0  3  0  0  0  0  0  0  0  0  0
    2.4910   -0.0370    0.1710 C   0  0  0  0  0  0  0  0  0  0  0  0
   -1.1180    1.3380    0.3210 C   0  0  0  0  0  0  0  0  0  0  0  0
   -1.1270    1.5010    1.4050 H   0  0  0  0  0  0  0  0  0  0  0  0
   -1.5350    2.2120   -0.1910 H   0  0  0  0  0  0  0  0  0  0  0  0
   -1.2380   -1.1070   -0.3230 C   0  0  0  0  0  0  0  0  0  0  0  0
    0.2710   -1.1860   -0.3670 C   0  0  0  0  0  0  0  0  0  0  0  0
    0.5780   -1.2060   -1.4220 H   0  0  0  0  0  0  0  0  0  0  0  0
    0.5760   -2.1400    0.0790 H   0  0  0  0  0  0  0  0  0  0  0  0
   -3.3070    0.1390   -0.0010 C   0  0  0  0  0  0  0  0  0  0  0  0
    3.1940    1.1520   -0.1720 C   0  0  0  0  0  0  0  0  0  0  0  0
    3.2220   -1.2220    0.3890 C   0  0  0  0  0  0  0  0  0  0  0  0
    2.7500   -2.1500    0.6960 H   0  0  0  0  0  0  0  0  0  0  0  0
    4.5900   -1.2000    0.2070 C   0  0  0  0  0  0  0  0  0  0  0  0
    5.2530   -0.0590   -0.1630 C   0  0  0  0  0  0  0  0  0  0  0  0
    4.5880    1.1300   -0.3590 C   0  0  0  0  0  0  0  0  0  0  0  0
    5.1380    2.0210   -0.6440 H   0  0  0  0  0  0  0  0  0  0  0  0
    1.1090    2.4800    0.3090 C   0  0  0  0  0  0  0  0  0  0  0  0
    0.5410    3.3670    0.0080 H   0  0  0  0  0  0  0  0  0  0  0  0
    1.1980    2.4570    1.4010 H   0  0  0  0  0  0  0  0  0  0  0  0
    5.4260   -2.2610    0.3620 O   0  0  0  0  0  0  0  0  0  0  0  0
    6.5920   -0.2550   -0.2930 O   0  0  0  0  0  0  0  0  0  0  0  0
   -4.0380   -1.0280   -0.2570 C   0  0  0  0  0  0  0  0  0  0  0  0
    6.6960   -1.6570    0.0330 C   0  0  0  0  0  0  0  0  0  0  0  0
    7.3700   -1.7690    0.8900 H   0  0  0  0  0  0  0  0  0  0  0  0
    7.1250   -2.1870   -0.8250 H   0  0  0  0  0  0  0  0  0  0  0  0
    2.4630    2.4550   -0.3850 C   0  0  0  0  0  0  0  0  0  0  0  0
    2.3330    2.6050   -1.4640 H   0  0  0  0  0  0  0  0  0  0  0  0
    3.0650    3.2880   -0.0030 H   0  0  0  0  0  0  0  0  0  0  0  0
   -1.9890   -2.2480   -0.6370 C   0  0  0  0  0  0  0  0  0  0  0  0
   -1.4930   -3.1810   -0.9020 H   0  0  0  0  0  0  0  0  0  0  0  0
   -3.3810   -2.2090   -0.6050 C   0  0  0  0  0  0  0  0  0  0  0  0
   -3.9540   -3.1020   -0.8400 H   0  0  0  0  0  0  0  0  0  0  0  0
   -3.8620    1.3480    0.3370 O   0  0  0  0  0  0  0  0  0  0  0  0
   -5.4070   -1.0500   -0.2150 O   0  0  0  0  0  0  0  0  0  0  0  0
   -4.9830    1.7350   -0.4570 C   0  0  0  0  0  0  0  0  0  0  0  0
   -5.0030    2.8290   -0.4870 H   0  0  0  0  0  0  0  0  0  0  0  0
   -5.9130    1.4030    0.0110 H   0  0  0  0  0  0  0  0  0  0  0  0
   -4.9110    1.3770   -1.4910 H   0  0  0  0  0  0  0  0  0  0  0  0
   -5.8500   -1.4460    1.0850 C   0  0  0  0  0  0  0  0  0  0  0  0
   -6.9440   -1.4080    1.0910 H   0  0  0  0  0  0  0  0  0  0  0  0
   -5.4830   -0.7600    1.8560 H   0  0  0  0  0  0  0  0  0  0  0  0
   -5.5450   -2.4730    1.3110 H   0  0  0  0  0  0  0  0  0  0  0  0
    0.7840   -0.0770    1.4460 H   0  0  0  0  0  0  0  0  0  0  0  0
  1  2  1  0  0  0  0
  1  4  1  0  0  0  0
  1  6  1  0  0  0  0
  1 21  1  0  0  0  0
  3  6  1  0  0  0  0
  3  9  2  0  0  0  0
  3 13  1  0  0  0  0
  4  5  1  0  0  0  0
  4 10  1  0  0  0  0
  4 47  1  0  0  0  0
  5 14  1  0  0  0  0
  5 15  2  0  0  0  0
  6  7  1  0  0  0  0
  6  8  1  0  0  0  0
  9 10  1  0  0  0  0
  9 33  1  0  0  0  0
 10 11  1  0  0  0  0
 10 12  1  0  0  0  0
 13 26  2  0  0  0  0
 13 37  1  0  0  0  0
 14 19  2  0  0  0  0
 14 30  1  0  0  0  0
 15 16  1  0  0  0  0
 15 17  1  0  0  0  0
 17 18  2  0  0  0  0
 17 24  1  0  0  0  0
 18 19  1  0  0  0  0
 18 25  1  0  0  0  0
 19 20  1  0  0  0  0
 21 22  1  0  0  0  0
 21 23  1  0  0  0  0
 21 30  1  0  0  0  0
 24 27  1  0  0  0  0
 25 27  1  0  0  0  0
 26 35  1  0  0  0  0
 26 38  1  0  0  0  0
 27 28  1  0  0  0  0
 27 29  1  0  0  0  0
 30 31  1  0  0  0  0
 30 32  1  0  0  0  0
 33 34  1  0  0  0  0
 33 35  2  0  0  0  0
 35 36  1  0  0  0  0
 37 39  1  0  0  0  0
 38 43  1  0  0  0  0
 39 40  1  0  0  0  0
 39 41  1  0  0  0  0
 39 42  1  0  0  0  0
 43 44  1  0  0  0  0
 43 45  1  0  0  0  0
 43 46  1  0  0  0  0
M  CHG  1   1   1
M  END
>  <IDNUMBER>
AE-508/21132023

>  <NAME>
Canadine

>  <ADD_INFO>
http://www.specs.net/enter.php?specsid=AE-508/21132023

>  <H_ACCEPTORS>
1

>  <H_DONORS>
0

>  <ROTATABLE_BONDS>
2

>  <LOGP>
3.73

>  <LOGS>
-3.8599999

>  <TPSA>
40.16

>  <PRICE>
N07

$$$$
AE-508/21132035
  MOE2011           3D

 57 61  0  0  1  0  0  0  0  0999 V2000
    0.6890    1.6380    0.7670 N   0  3  3  0  0  0  0  0  0  0  0  0
    1.3430    1.1550    1.3990 H   0  0  0  0  0  0  0  0  0  0  0  0
    0.8020   -0.5670   -0.6210 C   0  0  3  0  0  0  0  0  0  0  0  0
    0.7680    0.9940   -0.6320 C   0  0  3  0  0  0  0  0  0  0  0  0
   -0.4630   -1.1150   -0.1780 O   0  0  0  0  0  0  0  0  0  0  0  0
    1.9470   -1.1060    0.2410 C   0  0  0  0  0  0  0  0  0  0  0  0
   -1.2370   -1.7170   -1.1180 C   0  0  0  0  0  0  0  0  0  0  0  0
   -0.3460    1.6350   -1.4820 C   0  0  0  0  0  0  0  0  0  0  0  0
    0.0770    1.9270   -2.4510 H   0  0  0  0  0  0  0  0  0  0  0  0
   -1.1460    0.9280   -1.7140 H   0  0  0  0  0  0  0  0  0  0  0  0
   -0.7060    1.5890    1.3790 C   0  0  0  0  0  0  0  0  0  0  0  0
   -1.0050    0.5420    1.4570 H   0  0  0  0  0  0  0  0  0  0  0  0
   -0.6160    1.9830    2.3980 H   0  0  0  0  0  0  0  0  0  0  0  0
    3.2990   -1.1230   -0.2200 C   0  0  0  0  0  0  0  0  0  0  0  0
   -0.9220    2.8810   -0.7720 C   0  0  3  0  0  0  0  0  0  0  0  0
   -1.6540    2.4600    0.5290 C   0  0  3  0  0  0  0  0  0  0  0  0
    1.1430    3.0890    0.6690 C   0  0  0  0  0  0  0  0  0  0  0  0
    1.0450    3.5310    1.6660 H   0  0  0  0  0  0  0  0  0  0  0  0
    2.2000    3.0900    0.3840 H   0  0  0  0  0  0  0  0  0  0  0  0
    4.0120   -2.0070    1.9220 N   0  0  0  0  0  0  0  0  0  0  0  0
   -0.9760   -1.8020   -2.3070 O   0  0  0  0  0  0  0  0  0  0  0  0
    4.2910   -1.5860    0.6800 C   0  0  0  0  0  0  0  0  0  0  0  0
   -2.5060   -2.2090   -0.5240 C   0  0  0  0  0  0  0  0  0  0  0  0
   -2.9690    1.7680    0.2660 C   0  0  0  0  0  0  0  0  0  0  0  0
   -2.9600    0.8330   -0.2880 H   0  0  0  0  0  0  0  0  0  0  0  0
    0.2590    3.7890   -0.3680 C   0  0  0  0  0  0  0  0  0  0  0  0
   -0.1070    4.7380    0.0430 H   0  0  0  0  0  0  0  0  0  0  0  0
    0.8560    4.0460   -1.2520 H   0  0  0  0  0  0  0  0  0  0  0  0
   -4.1540    2.2420    0.6700 C   0  0  0  0  0  0  0  0  0  0  0  0
   -5.0710    1.7030    0.4480 H   0  0  0  0  0  0  0  0  0  0  0  0
   -4.2480    3.1730    1.2220 H   0  0  0  0  0  0  0  0  0  0  0  0
    2.7280   -2.0060    2.3220 C   0  0  0  0  0  0  0  0  0  0  0  0
    2.5590   -2.3760    3.3300 H   0  0  0  0  0  0  0  0  0  0  0  0
    1.6790   -1.5690    1.5370 C   0  0  0  0  0  0  0  0  0  0  0  0
    0.6730   -1.5980    1.9420 H   0  0  0  0  0  0  0  0  0  0  0  0
    3.7190   -0.7150   -1.5130 C   0  0  0  0  0  0  0  0  0  0  0  0
    3.0100   -0.3730   -2.2610 H   0  0  0  0  0  0  0  0  0  0  0  0
   -2.7210   -2.2600    0.8590 C   0  0  0  0  0  0  0  0  0  0  0  0
   -1.9500   -1.9610    1.5630 H   0  0  0  0  0  0  0  0  0  0  0  0
   -3.5230   -2.6190   -1.3980 C   0  0  0  0  0  0  0  0  0  0  0  0
   -3.3720   -2.5910   -2.4760 H   0  0  0  0  0  0  0  0  0  0  0  0
    5.6200   -1.6100    0.2800 C   0  0  0  0  0  0  0  0  0  0  0  0
    6.3750   -1.9670    0.9790 H   0  0  0  0  0  0  0  0  0  0  0  0
    5.0620   -0.7520   -1.8910 C   0  0  0  0  0  0  0  0  0  0  0  0
    5.3590   -0.4370   -2.8890 H   0  0  0  0  0  0  0  0  0  0  0  0
   -4.7450   -3.0650   -0.8930 C   0  0  0  0  0  0  0  0  0  0  0  0
   -5.5330   -3.3810   -1.5740 H   0  0  0  0  0  0  0  0  0  0  0  0
   -3.9460   -2.7070    1.3590 C   0  0  0  0  0  0  0  0  0  0  0  0
   -4.1150   -2.7470    2.4330 H   0  0  0  0  0  0  0  0  0  0  0  0
    6.0160   -1.1980   -0.9920 C   0  0  0  0  0  0  0  0  0  0  0  0
    7.0650   -1.2350   -1.2750 H   0  0  0  0  0  0  0  0  0  0  0  0
   -4.9570   -3.1060    0.4840 C   0  0  0  0  0  0  0  0  0  0  0  0
   -5.9100   -3.4540    0.8760 H   0  0  0  0  0  0  0  0  0  0  0  0
    0.9900   -0.9030   -1.6460 H   0  0  0  0  0  0  0  0  0  0  0  0
    1.7340    1.3330   -1.0270 H   0  0  0  0  0  0  0  0  0  0  0  0
   -1.5970    3.4200   -1.4460 H   0  0  0  0  0  0  0  0  0  0  0  0
   -1.8640    3.3740    1.1030 H   0  0  0  0  0  0  0  0  0  0  0  0
  1  2  1  0  0  0  0
  1  4  1  0  0  0  0
  1 11  1  0  0  0  0
  1 17  1  0  0  0  0
  3  4  1  0  0  0  0
  3  5  1  0  0  0  0
  3  6  1  0  0  0  0
  3 54  1  0  0  0  0
  4  8  1  0  0  0  0
  4 55  1  0  0  0  0
  5  7  1  0  0  0  0
  6 14  1  0  0  0  0
  6 34  2  0  0  0  0
  7 21  2  0  0  0  0
  7 23  1  0  0  0  0
  8  9  1  0  0  0  0
  8 10  1  0  0  0  0
  8 15  1  0  0  0  0
 11 12  1  0  0  0  0
 11 13  1  0  0  0  0
 11 16  1  0  0  0  0
 14 22  2  0  0  0  0
 14 36  1  0  0  0  0
 15 16  1  0  0  0  0
 15 26  1  0  0  0  0
 15 56  1  0  0  0  0
 16 24  1  0  0  0  0
 16 57  1  0  0  0  0
 17 18  1  0  0  0  0
 17 19  1  0  0  0  0
 17 26  1  0  0  0  0
 20 22  1  0  0  0  0
 20 32  2  0  0  0  0
 22 42  1  0  0  0  0
 23 38  2  0  0  0  0
 23 40  1  0  0  0  0
 24 25  1  0  0  0  0
 24 29  2  0  0  0  0
 26 27  1  0  0  0  0
 26 28  1  0  0  0  0
 29 30  1  0  0  0  0
 29 31  1  0  0  0  0
 32 33  1  0  0  0  0
 32 34  1  0  0  0  0
 34 35  1  0  0  0  0
 36 37  1  0  0  0  0
 36 44  2  0  0  0  0
 38 39  1  0  0  0  0
 38 48  1  0  0  0  0
 40 41  1  0  0  0  0
 40 46  2  0  0  0  0
 42 43  1  0  0  0  0
 42 50  2  0  0  0  0
 44 45  1  0  0  0  0
 44 50  1  0  0  0  0
 46 47  1  0  0  0  0
 46 52  1  0  0  0  0
 48 49  1  0  0  0  0
 48 52  2  0  0  0  0
 50 51  1  0  0  0  0
 52 53  1  0  0  0  0
M  CHG  1   1   1
M  END
>  <IDNUMBER>
AE-508/21132035

>  <NAME>
Cinchonine, O-benzoyl derivative of

>  <ADD_INFO>
http://www.specs.net/enter.php?specsid=AE-508/21132035

>  <H_ACCEPTORS>
4

>  <H_DONORS>
0

>  <ROTATABLE_BONDS>
6

>  <LOGP>
5.6700001

>  <LOGS>
-5.9400001

>  <TPSA>
42.43

>  <PRICE>
N06

$$$$
AE-508/21132060
  MOE2011           3D

 45 49  0  0  1  0  0  0  0  0999 V2000
    1.3680   -1.1030   -0.2470 N   0  0  0  0  0  0  0  0  0  0  0  0
    0.6530    0.0450   -0.4830 C   0  0  0  0  0  0  0  0  0  0  0  0
    1.4800    1.1390   -0.3830 C   0  0  0  0  0  0  0  0  0  0  0  0
    0.7940   -2.3770   -0.1490 C   0  0  0  0  0  0  0  0  0  0  0  0
    2.7100   -0.7490   -0.1080 C   0  0  0  0  0  0  0  0  0  0  0  0
   -0.8170    0.0890   -0.7020 C   0  0  1  0  0  0  0  0  0  0  0  0
   -1.5370   -1.1530   -0.1350 C   0  0  1  0  0  0  0  0  0  0  0  0
    2.7950    0.6500   -0.1810 C   0  0  0  0  0  0  0  0  0  0  0  0
   -1.3340    1.4010   -0.1150 N   0  3  3  0  0  0  0  0  0  0  0  0
   -2.3010    1.5260   -0.4300 H   0  0  0  0  0  0  0  0  0  0  0  0
   -0.6810   -2.4190   -0.4850 C   0  0  0  0  0  0  0  0  0  0  0  0
   -0.7240   -2.6170   -1.5650 H   0  0  0  0  0  0  0  0  0  0  0  0
   -1.1060   -3.2970    0.0190 H   0  0  0  0  0  0  0  0  0  0  0  0
    0.9570    2.5350   -0.4080 C   0  0  0  0  0  0  0  0  0  0  0  0
    1.4980    3.1350   -1.1480 H   0  0  0  0  0  0  0  0  0  0  0  0
    1.1380    2.9930    0.5720 H   0  0  0  0  0  0  0  0  0  0  0  0
    1.4790   -3.3530    0.1160 O   0  0  0  0  0  0  0  0  0  0  0  0
   -0.5570    2.5880   -0.7140 C   0  0  0  0  0  0  0  0  0  0  0  0
   -0.7340    2.5410   -1.7950 H   0  0  0  0  0  0  0  0  0  0  0  0
   -1.0150    3.5060   -0.3330 H   0  0  0  0  0  0  0  0  0  0  0  0
   -1.6780   -1.0690    1.4080 C   0  0  0  0  0  0  0  0  0  0  0  0
   -2.3370   -1.8660    1.7740 H   0  0  0  0  0  0  0  0  0  0  0  0
   -0.7040   -1.2550    1.8800 H   0  0  0  0  0  0  0  0  0  0  0  0
   -2.9270   -1.4250   -0.8160 C   0  0  0  0  0  0  0  0  0  0  0  0
   -2.7510   -1.8610   -1.8090 H   0  0  0  0  0  0  0  0  0  0  0  0
   -3.4500   -2.2060   -0.2480 H   0  0  0  0  0  0  0  0  0  0  0  0
    3.8580   -1.5370    0.0980 C   0  0  0  0  0  0  0  0  0  0  0  0
    3.8010   -2.6200    0.1570 H   0  0  0  0  0  0  0  0  0  0  0  0
   -1.3730    1.4400    1.3940 C   0  0  0  0  0  0  0  0  0  0  0  0
   -0.3490    1.4120    1.7770 H   0  0  0  0  0  0  0  0  0  0  0  0
   -1.8330    2.3920    1.6800 H   0  0  0  0  0  0  0  0  0  0  0  0
    4.0520    1.2720   -0.0330 C   0  0  0  0  0  0  0  0  0  0  0  0
    4.1420    2.3530   -0.0790 H   0  0  0  0  0  0  0  0  0  0  0  0
   -2.1830    0.2730    1.9280 C   0  0  0  0  0  0  0  0  0  0  0  0
   -2.1260    0.2730    3.0230 H   0  0  0  0  0  0  0  0  0  0  0  0
   -3.2410    0.4050    1.6900 H   0  0  0  0  0  0  0  0  0  0  0  0
   -3.9000   -0.2800   -1.0490 C   0  0  0  0  0  0  0  0  0  0  0  0
   -3.4970    0.4500   -1.7560 H   0  0  0  0  0  0  0  0  0  0  0  0
   -4.1910    0.2260   -0.1300 H   0  0  0  0  0  0  0  0  0  0  0  0
   -4.8190   -0.6740   -1.4990 H   0  0  0  0  0  0  0  0  0  0  0  0
    5.0940   -0.8970    0.2310 C   0  0  0  0  0  0  0  0  0  0  0  0
    5.9900   -1.4940    0.3890 H   0  0  0  0  0  0  0  0  0  0  0  0
    5.1920    0.4880    0.1680 C   0  0  0  0  0  0  0  0  0  0  0  0
    6.1630    0.9670    0.2770 H   0  0  0  0  0  0  0  0  0  0  0  0
   -0.9990    0.1550   -1.7830 H   0  0  0  0  0  0  0  0  0  0  0  0
  1  2  1  0  0  0  0
  1  4  1  0  0  0  0
  1  5  1  0  0  0  0
  2  3  2  0  0  0  0
  2  6  1  0  0  0  0
  3  8  1  0  0  0  0
  3 14  1  0  0  0  0
  4 11  1  0  0  0  0
  4 17  2  0  0  0  0
  5  8  2  0  0  0  0
  5 27  1  0  0  0  0
  6  7  1  0  0  0  0
  6  9  1  0  0  0  0
  6 45  1  0  0  0  0
  7 11  1  0  0  0  0
  7 21  1  0  0  0  0
  7 24  1  0  0  0  0
  8 32  1  0  0  0  0
  9 10  1  0  0  0  0
  9 18  1  0  0  0  0
  9 29  1  0  0  0  0
 11 12  1  0  0  0  0
 11 13  1  0  0  0  0
 14 15  1  0  0  0  0
 14 16  1  0  0  0  0
 14 18  1  0  0  0  0
 18 19  1  0  0  0  0
 18 20  1  0  0  0  0
 21 22  1  0  0  0  0
 21 23  1  0  0  0  0
 21 34  1  0  0  0  0
 24 25  1  0  0  0  0
 24 26  1  0  0  0  0
 24 37  1  0  0  0  0
 27 28  1  0  0  0  0
 27 41  2  0  0  0  0
 29 30  1  0  0  0  0
 29 31  1  0  0  0  0
 29 34  1  0  0  0  0
 32 33  1  0  0  0  0
 32 43  2  0  0  0  0
 34 35  1  0  0  0  0
 34 36  1  0  0  0  0
 37 38  1  0  0  0  0
 37 39  1  0  0  0  0
 37 40  1  0  0  0  0
 41 42  1  0  0  0  0
 41 43  1  0  0  0  0
 43 44  1  0  0  0  0
M  CHG  1   9   1
M  END
>  <IDNUMBER>
AE-508/21132060

>  <NAME>
Eburnamonine

>  <ADD_INFO>
http://www.specs.net/enter.php?specsid=AE-508/21132060

>  <H_ACCEPTORS>
3

>  <H_DONORS>
0

>  <ROTATABLE_BONDS>
1

>  <LOGP>
2.7

>  <LOGS>
-3.6500001

>  <TPSA>
23.549999

>  <PRICE>
N06

>  <STEREOCHEM>
(+)-isomer

$$$$
AE-508/21134061
  MOE2011           3D

 39 42  0  0  0  0  0  0  0  0999 V2000
   -0.5660   -0.0250    0.0870 C   0  0  0  0  0  0  0  0  0  0  0  0
   -0.2030    1.3520    0.1210 C   0  0  0  0  0  0  0  0  0  0  0  0
   -1.1500    2.3820    0.1570 C   0  0  0  0  0  0  0  0  0  0  0  0
    0.4820   -0.9680    0.2260 C   0  0  0  0  0  0  0  0  0  0  0  0
   -2.5930    2.0480    0.2060 C   0  0  0  0  0  0  0  0  0  0  0  0
   -2.0120   -0.3710   -0.0660 C   0  0  0  0  0  0  0  0  0  0  0  0
    1.8330   -0.5810    0.1960 C   0  0  0  0  0  0  0  0  0  0  0  0
    1.1540    1.7580    0.1540 C   0  0  0  0  0  0  0  0  0  0  0  0
   -2.9940    0.6350    0.0340 C   0  0  0  0  0  0  0  0  0  0  0  0
    2.1600    0.7760    0.1510 C   0  0  0  0  0  0  0  0  0  0  0  0
   -0.8670    3.7100    0.1950 N   0  0  0  0  0  0  0  0  0  0  0  0
   -3.4480    2.9130    0.3670 O   0  0  0  0  0  0  0  0  0  0  0  0
    0.1980   -2.3000    0.4190 O   0  0  0  0  0  0  0  0  0  0  0  0
    2.8690   -1.4770    0.3000 O   0  0  0  0  0  0  0  0  0  0  0  0
    3.4780    1.1710    0.1980 O   0  0  0  0  0  0  0  0  0  0  0  0
    1.4570    3.1310    0.1920 C   0  0  0  0  0  0  0  0  0  0  0  0
    2.4850    3.4810    0.2200 H   0  0  0  0  0  0  0  0  0  0  0  0
    0.4300    4.0530    0.2080 C   0  0  0  0  0  0  0  0  0  0  0  0
    0.6310    5.1200    0.2390 H   0  0  0  0  0  0  0  0  0  0  0  0
   -2.4870   -1.6620   -0.3680 C   0  0  0  0  0  0  0  0  0  0  0  0
   -1.8080   -2.4910   -0.5440 H   0  0  0  0  0  0  0  0  0  0  0  0
   -4.3670    0.3530   -0.0770 C   0  0  0  0  0  0  0  0  0  0  0  0
   -5.1030    1.1500    0.0150 H   0  0  0  0  0  0  0  0  0  0  0  0
    0.2110   -2.6080    1.8160 C   0  0  0  0  0  0  0  0  0  0  0  0
   -0.1050   -3.6490    1.9300 H   0  0  0  0  0  0  0  0  0  0  0  0
   -0.4940   -1.9780    2.3710 H   0  0  0  0  0  0  0  0  0  0  0  0
    1.2180   -2.5120    2.2360 H   0  0  0  0  0  0  0  0  0  0  0  0
    2.8440   -2.4830   -0.7130 C   0  0  0  0  0  0  0  0  0  0  0  0
    3.8810   -2.7490   -0.9410 H   0  0  0  0  0  0  0  0  0  0  0  0
    2.3750   -2.1390   -1.6420 H   0  0  0  0  0  0  0  0  0  0  0  0
    2.3460   -3.3830   -0.3410 H   0  0  0  0  0  0  0  0  0  0  0  0
    4.0720    1.0960   -1.0990 C   0  0  0  0  0  0  0  0  0  0  0  0
    5.0510    1.5800   -1.0460 H   0  0  0  0  0  0  0  0  0  0  0  0
    3.4730    1.6260   -1.8480 H   0  0  0  0  0  0  0  0  0  0  0  0
    4.2270    0.0570   -1.4060 H   0  0  0  0  0  0  0  0  0  0  0  0
   -3.8540   -1.9490   -0.4870 C   0  0  0  0  0  0  0  0  0  0  0  0
   -4.1750   -2.9630   -0.7120 H   0  0  0  0  0  0  0  0  0  0  0  0
   -4.7960   -0.9430   -0.3280 C   0  0  0  0  0  0  0  0  0  0  0  0
   -5.8560   -1.1620   -0.4210 H   0  0  0  0  0  0  0  0  0  0  0  0
  1  2  1  0  0  0  0
  1  4  2  0  0  0  0
  1  6  1  0  0  0  0
  2  3  2  0  0  0  0
  2  8  1  0  0  0  0
  3  5  1  0  0  0  0
  3 11  1  0  0  0  0
  4  7  1  0  0  0  0
  4 13  1  0  0  0  0
  5  9  1  0  0  0  0
  5 12  2  0  0  0  0
  6  9  2  0  0  0  0
  6 20  1  0  0  0  0
  7 10  2  0  0  0  0
  7 14  1  0  0  0  0
  8 10  1  0  0  0  0
  8 16  2  0  0  0  0
  9 22  1  0  0  0  0
 10 15  1  0  0  0  0
 11 18  2  0  0  0  0
 13 24  1  0  0  0  0
 14 28  1  0  0  0  0
 15 32  1  0  0  0  0
 16 17  1  0  0  0  0
 16 18  1  0  0  0  0
 18 19  1  0  0  0  0
 20 21  1  0  0  0  0
 20 36  2  0  0  0  0
 22 23  1  0  0  0  0
 22 38  2  0  0  0  0
 24 25  1  0  0  0  0
 24 26  1  0  0  0  0
 24 27  1  0  0  0  0
 28 29  1  0  0  0  0
 28 30  1  0  0  0  0
 28 31  1  0  0  0  0
 32 33  1  0  0  0  0
 32 34  1  0  0  0  0
 32 35  1  0  0  0  0
 36 37  1  0  0  0  0
 36 38  1  0  0  0  0
 38 39  1  0  0  0  0
M  END
>  <IDNUMBER>
AE-508/21134061

>  <NAME>
O-Methylmoschatoline

>  <ADD_INFO>
http://www.specs.net/enter.php?specsid=AE-508/21134061

>  <H_ACCEPTORS>
2

>  <H_DONORS>
0

>  <ROTATABLE_BONDS>
3

>  <LOGP>
3.21

>  <LOGS>
-5.4000001

>  <TPSA>
57.650002

>  <PRICE>
N06

$$$$
AE-508/21135008
  MOE2011           3D

 84 90  0  0  1  0  0  0  0  0999 V2000
    1.9830   -0.4570   -0.8150 C   0  0  0  0  0  0  0  0  0  0  0  0
    2.7780    0.5210   -0.1910 C   0  0  0  0  0  0  0  0  0  0  0  0
    0.6160   -0.3160   -0.7410 O   0  0  0  0  0  0  0  0  0  0  0  0
    2.1350    1.7670    0.3890 C   0  0  3  0  0  0  0  0  0  0  0  0
   -2.4130   -2.1000    0.2160 C   0  0  0  0  0  0  0  0  0  0  0  0
    2.5680   -1.5180   -1.5190 C   0  0  0  0  0  0  0  0  0  0  0  0
    4.1700    0.3370   -0.1620 C   0  0  0  0  0  0  0  0  0  0  0  0
   -3.9180   -1.9690    0.0390 C   0  0  2  0  0  0  0  0  0  0  0  0
   -0.1250   -1.2520   -0.0370 C   0  0  0  0  0  0  0  0  0  0  0  0
    3.0040    2.4390    1.4550 N   0  3  3  0  0  0  0  0  0  0  0  0
    2.6340    3.3880    1.5940 H   0  0  0  0  0  0  0  0  0  0  0  0
   -4.6070   -3.3400    0.0420 N   0  3  3  0  0  0  0  0  0  0  0  0
   -5.6220   -3.1690    0.0410 H   0  0  0  0  0  0  0  0  0  0  0  0
   -1.4900   -1.2180   -0.3610 C   0  0  0  0  0  0  0  0  0  0  0  0
   -1.8030   -0.4650   -1.0770 H   0  0  0  0  0  0  0  0  0  0  0  0
   -1.9240   -3.0940    1.0840 C   0  0  0  0  0  0  0  0  0  0  0  0
    3.9540   -1.6930   -1.5100 C   0  0  0  0  0  0  0  0  0  0  0  0
   -1.5830    4.4880   -0.3950 C   0  0  0  0  0  0  0  0  0  0  0  0
   -2.9310    4.3430   -0.6690 O   0  0  0  0  0  0  0  0  0  0  0  0
    4.7430   -0.7760   -0.8090 C   0  0  0  0  0  0  0  0  0  0  0  0
    5.8210   -0.9020   -0.7500 H   0  0  0  0  0  0  0  0  0  0  0  0
    0.3350   -2.1670    0.9190 C   0  0  0  0  0  0  0  0  0  0  0  0
   -0.5640   -3.1020    1.4460 C   0  0  0  0  0  0  0  0  0  0  0  0
   -0.2270   -3.8430    2.1660 H   0  0  0  0  0  0  0  0  0  0  0  0
    1.8070    2.7690   -0.7530 C   0  0  0  0  0  0  0  0  0  0  0  0
    2.7080    3.2750   -1.1190 H   0  0  0  0  0  0  0  0  0  0  0  0
    1.4370    2.2250   -1.6330 H   0  0  0  0  0  0  0  0  0  0  0  0
   -4.4860   -1.0930   -1.1120 C   0  0  0  0  0  0  0  0  0  0  0  0
   -4.0740   -1.4520   -2.0640 H   0  0  0  0  0  0  0  0  0  0  0  0
   -5.5750   -1.2130   -1.1670 H   0  0  0  0  0  0  0  0  0  0  0  0
   -1.1940    5.7320    0.1020 C   0  0  0  0  0  0  0  0  0  0  0  0
   -0.6000    3.5170   -0.6300 C   0  0  0  0  0  0  0  0  0  0  0  0
   -0.8700    2.5450   -1.0340 H   0  0  0  0  0  0  0  0  0  0  0  0
    5.0640    1.2510    0.6410 C   0  0  0  0  0  0  0  0  0  0  0  0
    5.9900    1.4420    0.0860 H   0  0  0  0  0  0  0  0  0  0  0  0
    5.3440    0.7220    1.5600 H   0  0  0  0  0  0  0  0  0  0  0  0
    4.4380    2.5930    1.0060 C   0  0  0  0  0  0  0  0  0  0  0  0
    4.4360    3.2730    0.1490 H   0  0  0  0  0  0  0  0  0  0  0  0
    4.9900    3.0870    1.8140 H   0  0  0  0  0  0  0  0  0  0  0  0
   -4.3110   -4.0330    1.3560 C   0  0  0  0  0  0  0  0  0  0  0  0
   -4.7430   -3.4000    2.1410 H   0  0  0  0  0  0  0  0  0  0  0  0
   -4.8470   -4.9880    1.3640 H   0  0  0  0  0  0  0  0  0  0  0  0
    0.7600    3.8020   -0.4040 C   0  0  0  0  0  0  0  0  0  0  0  0
   -2.8090   -4.2190    1.5770 C   0  0  0  0  0  0  0  0  0  0  0  0
   -2.6340   -4.3830    2.6470 H   0  0  0  0  0  0  0  0  0  0  0  0
   -2.4930   -5.1330    1.0580 H   0  0  0  0  0  0  0  0  0  0  0  0
   -3.4090    3.0640   -0.7890 C   0  0  0  0  0  0  0  0  0  0  0  0
    0.1430    6.0220    0.3520 C   0  0  0  0  0  0  0  0  0  0  0  0
    0.4220    7.0030    0.7260 H   0  0  0  0  0  0  0  0  0  0  0  0
    1.7920   -2.4030   -2.2240 O   0  0  0  0  0  0  0  0  0  0  0  0
    0.8840   -2.0590   -2.2410 H   0  0  0  0  0  0  0  0  0  0  0  0
   -4.2160    0.3970   -0.9880 C   0  0  0  0  0  0  0  0  0  0  0  0
    1.1210    5.0630    0.0860 C   0  0  0  0  0  0  0  0  0  0  0  0
    2.1650    5.3310    0.2330 H   0  0  0  0  0  0  0  0  0  0  0  0
    4.4280   -2.7840   -2.1890 O   0  0  0  0  0  0  0  0  0  0  0  0
    1.6270   -2.0720    1.3620 O   0  0  0  0  0  0  0  0  0  0  0  0
   -2.1170    6.7110    0.3480 O   0  0  0  0  0  0  0  0  0  0  0  0
   -2.9850    6.3620    0.0750 H   0  0  0  0  0  0  0  0  0  0  0  0
   -3.8390    2.3910    0.3500 C   0  0  0  0  0  0  0  0  0  0  0  0
   -3.8300    2.8880    1.3160 H   0  0  0  0  0  0  0  0  0  0  0  0
   -3.4880    2.4650   -2.0440 C   0  0  0  0  0  0  0  0  0  0  0  0
   -3.2040    3.0170   -2.9360 H   0  0  0  0  0  0  0  0  0  0  0  0
   -4.2570    1.0660    0.2470 C   0  0  0  0  0  0  0  0  0  0  0  0
   -4.5820    0.5700    1.1580 H   0  0  0  0  0  0  0  0  0  0  0  0
   -3.8840    1.1300   -2.1400 C   0  0  0  0  0  0  0  0  0  0  0  0
   -3.8920    0.6560   -3.1200 H   0  0  0  0  0  0  0  0  0  0  0  0
    2.8740    1.7740    2.8020 C   0  0  0  0  0  0  0  0  0  0  0  0
    3.1820    0.7290    2.7240 H   0  0  0  0  0  0  0  0  0  0  0  0
    1.8280    1.8480    3.1120 H   0  0  0  0  0  0  0  0  0  0  0  0
    3.5070    2.3180    3.5090 H   0  0  0  0  0  0  0  0  0  0  0  0
   -4.3310   -4.2020   -1.1620 C   0  0  0  0  0  0  0  0  0  0  0  0
   -3.2560   -4.3690   -1.2570 H   0  0  0  0  0  0  0  0  0  0  0  0
   -4.7260   -3.6930   -2.0440 H   0  0  0  0  0  0  0  0  0  0  0  0
   -4.8590   -5.1490   -1.0230 H   0  0  0  0  0  0  0  0  0  0  0  0
    5.8360   -2.9710   -2.2330 C   0  0  0  0  0  0  0  0  0  0  0  0
    6.0360   -3.8600   -2.8380 H   0  0  0  0  0  0  0  0  0  0  0  0
    6.2400   -3.1510   -1.2320 H   0  0  0  0  0  0  0  0  0  0  0  0
    6.3330   -2.1220   -2.7150 H   0  0  0  0  0  0  0  0  0  0  0  0
    2.2670   -3.3080    1.6730 C   0  0  0  0  0  0  0  0  0  0  0  0
    3.3470   -3.1290    1.6830 H   0  0  0  0  0  0  0  0  0  0  0  0
    2.0610   -4.0750    0.9180 H   0  0  0  0  0  0  0  0  0  0  0  0
    1.9770   -3.6500    2.6710 H   0  0  0  0  0  0  0  0  0  0  0  0
   -4.2750   -1.5210    0.9750 H   0  0  0  0  0  0  0  0  0  0  0  0
    1.2090    1.4940    0.9110 H   0  0  0  0  0  0  0  0  0  0  0  0
  1  2  2  0  0  0  0
  1  3  1  0  0  0  0
  1  6  1  0  0  0  0
  2  4  1  0  0  0  0
  2  7  1  0  0  0  0
  3  9  1  0  0  0  0
  4 10  1  0  0  0  0
  4 25  1  0  0  0  0
  4 84  1  0  0  0  0
  5  8  1  0  0  0  0
  5 14  2  0  0  0  0
  5 16  1  0  0  0  0
  6 17  2  0  0  0  0
  6 50  1  0  0  0  0
  7 20  2  0  0  0  0
  7 34  1  0  0  0  0
  8 12  1  0  0  0  0
  8 28  1  0  0  0  0
  8 83  1  0  0  0  0
  9 14  1  0  0  0  0
  9 22  2  0  0  0  0
 10 11  1  0  0  0  0
 10 37  1  0  0  0  0
 10 67  1  0  0  0  0
 12 13  1  0  0  0  0
 12 40  1  0  0  0  0
 12 71  1  0  0  0  0
 14 15  1  0  0  0  0
 16 23  2  0  0  0  0
 16 44  1  0  0  0  0
 17 20  1  0  0  0  0
 17 55  1  0  0  0  0
 18 19  1  0  0  0  0
 18 31  2  0  0  0  0
 18 32  1  0  0  0  0
 19 47  1  0  0  0  0
 20 21  1  0  0  0  0
 22 23  1  0  0  0  0
 22 56  1  0  0  0  0
 23 24  1  0  0  0  0
 25 26  1  0  0  0  0
 25 27  1  0  0  0  0
 25 43  1  0  0  0  0
 28 29  1  0  0  0  0
 28 30  1  0  0  0  0
 28 52  1  0  0  0  0
 31 48  1  0  0  0  0
 31 57  1  0  0  0  0
 32 33  1  0  0  0  0
 32 43  2  0  0  0  0
 34 35  1  0  0  0  0
 34 36  1  0  0  0  0
 34 37  1  0  0  0  0
 37 38  1  0  0  0  0
 37 39  1  0  0  0  0
 40 41  1  0  0  0  0
 40 42  1  0  0  0  0
 40 44  1  0  0  0  0
 43 53  1  0  0  0  0
 44 45  1  0  0  0  0
 44 46  1  0  0  0  0
 47 59  2  0  0  0  0
 47 61  1  0  0  0  0
 48 49  1  0  0  0  0
 48 53  2  0  0  0  0
 50 51  1  0  0  0  0
 52 63  2  0  0  0  0
 52 65  1  0  0  0  0
 53 54  1  0  0  0  0
 55 75  1  0  0  0  0
 56 79  1  0  0  0  0
 57 58  1  0  0  0  0
 59 60  1  0  0  0  0
 59 63  1  0  0  0  0
 61 62  1  0  0  0  0
 61 65  2  0  0  0  0
 63 64  1  0  0  0  0
 65 66  1  0  0  0  0
 67 68  1  0  0  0  0
 67 69  1  0  0  0  0
 67 70  1  0  0  0  0
 71 72  1  0  0  0  0
 71 73  1  0  0  0  0
 71 74  1  0  0  0  0
 75 76  1  0  0  0  0
 75 77  1  0  0  0  0
 75 78  1  0  0  0  0
 79 80  1  0  0  0  0
 79 81  1  0  0  0  0
 79 82  1  0  0  0  0
M  CHG  1  10   1
M  CHG  1  12   1
M  END
>  <IDNUMBER>
AE-508/21135008

>  <NAME>
Krukovine

>  <ADD_INFO>
http://www.specs.net/enter.php?specsid=AE-508/21135008

>  <H_ACCEPTORS>
2

>  <H_DONORS>
2

>  <ROTATABLE_BONDS>
2

>  <LOGP>
6.79

>  <LOGS>
-8.8500004

>  <TPSA>
83.860001

>  <PRICE>
N06

$$$$
AE-508/21135018
  MOE2011           3D

 41 44  0  0  1  0  0  0  0  0999 V2000
    0.3270    0.2530    0.2480 C   0  0  0  0  0  0  0  0  0  0  0  0
    0.0040   -1.1280    0.1630 C   0  0  0  0  0  0  0  0  0  0  0  0
   -0.8230    1.2350    0.4380 C   0  0  3  0  0  0  0  0  0  0  0  0
    1.6590    0.6990    0.1210 C   0  0  0  0  0  0  0  0  0  0  0  0
   -0.4070    2.7040    0.4170 N   0  3  3  0  0  0  0  0  0  0  0  0
   -0.0670    2.8800    1.3720 H   0  0  0  0  0  0  0  0  0  0  0  0
    1.0810   -2.0230    0.0380 C   0  0  0  0  0  0  0  0  0  0  0  0
   -1.4370   -1.5090    0.1130 C   0  0  0  0  0  0  0  0  0  0  0  0
   -1.9310    0.8830   -0.5700 C   0  0  0  0  0  0  0  0  0  0  0  0
   -2.7890    1.5530   -0.4540 H   0  0  0  0  0  0  0  0  0  0  0  0
   -1.5770    0.9550   -1.6060 H   0  0  0  0  0  0  0  0  0  0  0  0
   -2.3890   -0.5380   -0.2950 C   0  0  0  0  0  0  0  0  0  0  0  0
    2.4190   -1.5920   -0.0030 C   0  0  0  0  0  0  0  0  0  0  0  0
    2.7030   -0.2310    0.0330 C   0  0  0  0  0  0  0  0  0  0  0  0
    3.7240    0.1320   -0.0360 H   0  0  0  0  0  0  0  0  0  0  0  0
    1.9690    2.1720    0.0530 C   0  0  0  0  0  0  0  0  0  0  0  0
    2.8240    2.3450   -0.6110 H   0  0  0  0  0  0  0  0  0  0  0  0
    2.2470    2.5220    1.0550 H   0  0  0  0  0  0  0  0  0  0  0  0
    0.7770    2.9640   -0.4800 C   0  0  0  0  0  0  0  0  0  0  0  0
    0.4940    2.6750   -1.4980 H   0  0  0  0  0  0  0  0  0  0  0  0
    0.9910    4.0370   -0.4490 H   0  0  0  0  0  0  0  0  0  0  0  0
    0.8700   -3.3760   -0.0940 O   0  0  0  0  0  0  0  0  0  0  0  0
    1.7640   -3.7660   -0.1830 H   0  0  0  0  0  0  0  0  0  0  0  0
    3.3360   -2.6080   -0.1160 O   0  0  0  0  0  0  0  0  0  0  0  0
   -1.5130    3.7010    0.2240 C   0  0  0  0  0  0  0  0  0  0  0  0
   -1.8530    3.6560   -0.8140 H   0  0  0  0  0  0  0  0  0  0  0  0
   -1.1130    4.6930    0.4510 H   0  0  0  0  0  0  0  0  0  0  0  0
   -2.3160    3.4590    0.9250 H   0  0  0  0  0  0  0  0  0  0  0  0
   -1.9220   -2.7830    0.4490 C   0  0  0  0  0  0  0  0  0  0  0  0
   -1.2540   -3.5580    0.8140 H   0  0  0  0  0  0  0  0  0  0  0  0
   -3.7450   -0.8690   -0.4310 C   0  0  0  0  0  0  0  0  0  0  0  0
   -4.4680   -0.1290   -0.7660 H   0  0  0  0  0  0  0  0  0  0  0  0
    4.7100   -2.2360   -0.1340 C   0  0  0  0  0  0  0  0  0  0  0  0
    5.3030   -3.1540   -0.1960 H   0  0  0  0  0  0  0  0  0  0  0  0
    4.9910   -1.7180    0.7880 H   0  0  0  0  0  0  0  0  0  0  0  0
    4.9410   -1.6300   -1.0160 H   0  0  0  0  0  0  0  0  0  0  0  0
   -3.2790   -3.1030    0.3330 C   0  0  0  0  0  0  0  0  0  0  0  0
   -3.6230   -4.1010    0.5920 H   0  0  0  0  0  0  0  0  0  0  0  0
   -4.1860   -2.1510   -0.1190 C   0  0  0  0  0  0  0  0  0  0  0  0
   -5.2380   -2.4060   -0.2170 H   0  0  0  0  0  0  0  0  0  0  0  0
   -1.2060    1.0940    1.4590 H   0  0  0  0  0  0  0  0  0  0  0  0
  1  2  2  0  0  0  0
  1  3  1  0  0  0  0
  1  4  1  0  0  0  0
  2  7  1  0  0  0  0
  2  8  1  0  0  0  0
  3  5  1  0  0  0  0
  3  9  1  0  0  0  0
  3 41  1  0  0  0  0
  4 14  2  0  0  0  0
  4 16  1  0  0  0  0
  5  6  1  0  0  0  0
  5 19  1  0  0  0  0
  5 25  1  0  0  0  0
  7 13  2  0  0  0  0
  7 22  1  0  0  0  0
  8 12  2  0  0  0  0
  8 29  1  0  0  0  0
  9 10  1  0  0  0  0
  9 11  1  0  0  0  0
  9 12  1  0  0  0  0
 12 31  1  0  0  0  0
 13 14  1  0  0  0  0
 13 24  1  0  0  0  0
 14 15  1  0  0  0  0
 16 17  1  0  0  0  0
 16 18  1  0  0  0  0
 16 19  1  0  0  0  0
 19 20  1  0  0  0  0
 19 21  1  0  0  0  0
 22 23  1  0  0  0  0
 24 33  1  0  0  0  0
 25 26  1  0  0  0  0
 25 27  1  0  0  0  0
 25 28  1  0  0  0  0
 29 30  1  0  0  0  0
 29 37  2  0  0  0  0
 31 32  1  0  0  0  0
 31 39  2  0  0  0  0
 33 34  1  0  0  0  0
 33 35  1  0  0  0  0
 33 36  1  0  0  0  0
 37 38  1  0  0  0  0
 37 39  1  0  0  0  0
 39 40  1  0  0  0  0
M  CHG  1   5   1
M  END
>  <IDNUMBER>
AE-508/21135018

>  <NAME>
Lirinidine

>  <ADD_INFO>
http://www.specs.net/enter.php?specsid=AE-508/21135018

>  <H_ACCEPTORS>
1

>  <H_DONORS>
1

>  <ROTATABLE_BONDS>
1

>  <LOGP>
3.0899999

>  <LOGS>
-3.99

>  <TPSA>
32.700001

>  <PRICE>
N06

>  <SALTDATA>
HCl

$$$$
AE-508/21136041
  MOE2011           3D

 87 93  0  0  1  0  0  0  0  0999 V2000
    1.1690    1.9690   -0.8090 C   0  0  0  0  0  0  0  0  0  0  0  0
    0.3920    3.0000   -0.2490 C   0  0  0  0  0  0  0  0  0  0  0  0
    0.6320    0.6930   -0.8250 O   0  0  0  0  0  0  0  0  0  0  0  0
   -1.0860    2.7940    0.0870 C   0  0  3  0  0  0  0  0  0  0  0  0
    1.8780   -2.6270    0.0350 C   0  0  0  0  0  0  0  0  0  0  0  0
    2.4740    2.2000   -1.2900 C   0  0  0  0  0  0  0  0  0  0  0  0
    1.0690    4.1820    0.1040 C   0  0  0  0  0  0  0  0  0  0  0  0
    1.7730   -4.0420   -0.5070 C   0  0  1  0  0  0  0  0  0  0  0  0
    1.2540   -0.2720   -0.0430 C   0  0  0  0  0  0  0  0  0  0  0  0
   -1.7380    4.0620    0.6950 N   0  3  3  0  0  0  0  0  0  0  0  0
   -2.5560    3.7420    1.2290 H   0  0  0  0  0  0  0  0  0  0  0  0
    3.0350   -4.9060   -0.2410 N   0  3  3  0  0  0  0  0  0  0  0  0
    2.7310   -5.7430    0.2750 H   0  0  0  0  0  0  0  0  0  0  0  0
    1.2280   -1.5590   -0.5990 C   0  0  0  0  0  0  0  0  0  0  0  0
    0.6900   -1.7200   -1.5320 H   0  0  0  0  0  0  0  0  0  0  0  0
    2.5950   -2.3820    1.2130 C   0  0  0  0  0  0  0  0  0  0  0  0
    3.0870    3.4320   -1.0680 C   0  0  0  0  0  0  0  0  0  0  0  0
   -4.2610   -0.7260   -0.6020 C   0  0  0  0  0  0  0  0  0  0  0  0
   -4.2890   -2.0880   -0.8430 O   0  0  0  0  0  0  0  0  0  0  0  0
    2.3870    4.3960   -0.3340 C   0  0  0  0  0  0  0  0  0  0  0  0
    2.8890    5.3340   -0.0950 H   0  0  0  0  0  0  0  0  0  0  0  0
    1.8700   -0.0570    1.2040 C   0  0  0  0  0  0  0  0  0  0  0  0
    2.5530   -1.1170    1.8140 C   0  0  0  0  0  0  0  0  0  0  0  0
    3.0620   -0.9820    2.7650 H   0  0  0  0  0  0  0  0  0  0  0  0
   -1.9460    2.2720   -1.1070 C   0  0  0  0  0  0  0  0  0  0  0  0
   -2.2620    3.0780   -1.7770 H   0  0  0  0  0  0  0  0  0  0  0  0
   -1.3380    1.6480   -1.7720 H   0  0  0  0  0  0  0  0  0  0  0  0
    0.5740   -4.8250    0.0940 C   0  0  0  0  0  0  0  0  0  0  0  0
    0.5350   -5.8330   -0.3420 H   0  0  0  0  0  0  0  0  0  0  0  0
    0.7240   -4.9780    1.1710 H   0  0  0  0  0  0  0  0  0  0  0  0
   -3.1380    0.0610   -0.9080 C   0  0  0  0  0  0  0  0  0  0  0  0
   -2.2520   -0.4080   -1.3310 H   0  0  0  0  0  0  0  0  0  0  0  0
   -5.4320   -0.1370   -0.1080 C   0  0  0  0  0  0  0  0  0  0  0  0
    0.4380    5.2210    0.9960 C   0  0  0  0  0  0  0  0  0  0  0  0
    0.1950    6.1080    0.4000 H   0  0  0  0  0  0  0  0  0  0  0  0
    1.1610    5.5340    1.7600 H   0  0  0  0  0  0  0  0  0  0  0  0
   -0.7980    4.6830    1.7080 C   0  0  0  0  0  0  0  0  0  0  0  0
   -1.3440    5.4760    2.2310 H   0  0  0  0  0  0  0  0  0  0  0  0
   -0.5490    3.9000    2.4340 H   0  0  0  0  0  0  0  0  0  0  0  0
    4.0820   -4.2560    0.6460 C   0  0  0  0  0  0  0  0  0  0  0  0
    4.7190   -5.0620    1.0230 H   0  0  0  0  0  0  0  0  0  0  0  0
    4.6800   -3.5880    0.0140 H   0  0  0  0  0  0  0  0  0  0  0  0
   -3.1580    1.4500   -0.7160 C   0  0  0  0  0  0  0  0  0  0  0  0
    3.4170   -3.4990    1.7950 C   0  0  0  0  0  0  0  0  0  0  0  0
    2.7800   -4.1590    2.3950 H   0  0  0  0  0  0  0  0  0  0  0  0
    4.1980   -3.0960    2.4500 H   0  0  0  0  0  0  0  0  0  0  0  0
   -3.1390   -2.7870   -0.5710 C   0  0  0  0  0  0  0  0  0  0  0  0
   -5.4540    1.2440    0.0860 C   0  0  0  0  0  0  0  0  0  0  0  0
   -6.3400    1.7520    0.4580 H   0  0  0  0  0  0  0  0  0  0  0  0
    3.1240    1.2000   -1.9620 O   0  0  0  0  0  0  0  0  0  0  0  0
    2.4780    0.4970   -2.1470 H   0  0  0  0  0  0  0  0  0  0  0  0
   -0.7640   -4.1700   -0.1290 C   0  0  0  0  0  0  0  0  0  0  0  0
   -4.3320    2.0270   -0.2210 C   0  0  0  0  0  0  0  0  0  0  0  0
   -4.4250    3.1000   -0.0920 H   0  0  0  0  0  0  0  0  0  0  0  0
    4.3370    3.8490   -1.4340 O   0  0  0  0  0  0  0  0  0  0  0  0
    1.7280    1.1740    1.7870 O   0  0  0  0  0  0  0  0  0  0  0  0
   -2.5750   -2.7910    0.7040 C   0  0  0  0  0  0  0  0  0  0  0  0
   -3.0500   -2.2530    1.5190 H   0  0  0  0  0  0  0  0  0  0  0  0
   -2.5660   -3.5190   -1.6090 C   0  0  0  0  0  0  0  0  0  0  0  0
   -3.0370   -3.5380   -2.5880 H   0  0  0  0  0  0  0  0  0  0  0  0
   -1.3840   -3.4770    0.9220 C   0  0  0  0  0  0  0  0  0  0  0  0
   -0.9350   -3.4510    1.9120 H   0  0  0  0  0  0  0  0  0  0  0  0
   -1.3740   -4.2060   -1.3900 C   0  0  0  0  0  0  0  0  0  0  0  0
   -0.9240   -4.7580   -2.2130 H   0  0  0  0  0  0  0  0  0  0  0  0
   -6.4760   -0.9870    0.1450 O   0  0  0  0  0  0  0  0  0  0  0  0
   -2.2390    5.1040   -0.2820 C   0  0  0  0  0  0  0  0  0  0  0  0
   -1.4740    5.2900   -1.0400 H   0  0  0  0  0  0  0  0  0  0  0  0
   -2.4670    6.0160    0.2750 H   0  0  0  0  0  0  0  0  0  0  0  0
   -3.1590    4.7440   -0.7430 H   0  0  0  0  0  0  0  0  0  0  0  0
    3.6420   -5.4280   -1.5160 C   0  0  0  0  0  0  0  0  0  0  0  0
    3.9840   -4.5780   -2.1120 H   0  0  0  0  0  0  0  0  0  0  0  0
    2.8740   -5.9980   -2.0460 H   0  0  0  0  0  0  0  0  0  0  0  0
    4.4760   -6.0830   -1.2510 H   0  0  0  0  0  0  0  0  0  0  0  0
    5.0920    3.0260   -2.3100 C   0  0  0  0  0  0  0  0  0  0  0  0
    6.0010    3.5750   -2.5760 H   0  0  0  0  0  0  0  0  0  0  0  0
    4.5500    2.8260   -3.2400 H   0  0  0  0  0  0  0  0  0  0  0  0
    5.4050    2.1040   -1.8110 H   0  0  0  0  0  0  0  0  0  0  0  0
    2.6920    1.5430    2.7680 C   0  0  0  0  0  0  0  0  0  0  0  0
    2.5750    2.6140    2.9620 H   0  0  0  0  0  0  0  0  0  0  0  0
    3.7140    1.3790    2.4100 H   0  0  0  0  0  0  0  0  0  0  0  0
    2.5110    1.0130    3.7080 H   0  0  0  0  0  0  0  0  0  0  0  0
   -7.6860   -0.4170    0.6250 C   0  0  0  0  0  0  0  0  0  0  0  0
   -8.4060   -1.2290    0.7620 H   0  0  0  0  0  0  0  0  0  0  0  0
   -8.1090    0.2840   -0.1020 H   0  0  0  0  0  0  0  0  0  0  0  0
   -7.5360    0.0630    1.5980 H   0  0  0  0  0  0  0  0  0  0  0  0
    1.6680   -3.9880   -1.5980 H   0  0  0  0  0  0  0  0  0  0  0  0
   -1.1190    2.0620    0.9060 H   0  0  0  0  0  0  0  0  0  0  0  0
  1  2  2  0  0  0  0
  1  3  1  0  0  0  0
  1  6  1  0  0  0  0
  2  4  1  0  0  0  0
  2  7  1  0  0  0  0
  3  9  1  0  0  0  0
  4 10  1  0  0  0  0
  4 25  1  0  0  0  0
  4 87  1  0  0  0  0
  5  8  1  0  0  0  0
  5 14  2  0  0  0  0
  5 16  1  0  0  0  0
  6 17  2  0  0  0  0
  6 50  1  0  0  0  0
  7 20  2  0  0  0  0
  7 34  1  0  0  0  0
  8 12  1  0  0  0  0
  8 28  1  0  0  0  0
  8 86  1  0  0  0  0
  9 14  1  0  0  0  0
  9 22  2  0  0  0  0
 10 11  1  0  0  0  0
 10 37  1  0  0  0  0
 10 66  1  0  0  0  0
 12 13  1  0  0  0  0
 12 40  1  0  0  0  0
 12 70  1  0  0  0  0
 14 15  1  0  0  0  0
 16 23  2  0  0  0  0
 16 44  1  0  0  0  0
 17 20  1  0  0  0  0
 17 55  1  0  0  0  0
 18 19  1  0  0  0  0
 18 31  2  0  0  0  0
 18 33  1  0  0  0  0
 19 47  1  0  0  0  0
 20 21  1  0  0  0  0
 22 23  1  0  0  0  0
 22 56  1  0  0  0  0
 23 24  1  0  0  0  0
 25 26  1  0  0  0  0
 25 27  1  0  0  0  0
 25 43  1  0  0  0  0
 28 29  1  0  0  0  0
 28 30  1  0  0  0  0
 28 52  1  0  0  0  0
 31 32  1  0  0  0  0
 31 43  1  0  0  0  0
 33 48  2  0  0  0  0
 33 65  1  0  0  0  0
 34 35  1  0  0  0  0
 34 36  1  0  0  0  0
 34 37  1  0  0  0  0
 37 38  1  0  0  0  0
 37 39  1  0  0  0  0
 40 41  1  0  0  0  0
 40 42  1  0  0  0  0
 40 44  1  0  0  0  0
 43 53  2  0  0  0  0
 44 45  1  0  0  0  0
 44 46  1  0  0  0  0
 47 57  2  0  0  0  0
 47 59  1  0  0  0  0
 48 49  1  0  0  0  0
 48 53  1  0  0  0  0
 50 51  1  0  0  0  0
 52 61  2  0  0  0  0
 52 63  1  0  0  0  0
 53 54  1  0  0  0  0
 55 74  1  0  0  0  0
 56 78  1  0  0  0  0
 57 58  1  0  0  0  0
 57 61  1  0  0  0  0
 59 60  1  0  0  0  0
 59 63  2  0  0  0  0
 61 62  1  0  0  0  0
 63 64  1  0  0  0  0
 65 82  1  0  0  0  0
 66 67  1  0  0  0  0
 66 68  1  0  0  0  0
 66 69  1  0  0  0  0
 70 71  1  0  0  0  0
 70 72  1  0  0  0  0
 70 73  1  0  0  0  0
 74 75  1  0  0  0  0
 74 76  1  0  0  0  0
 74 77  1  0  0  0  0
 78 79  1  0  0  0  0
 78 80  1  0  0  0  0
 78 81  1  0  0  0  0
 82 83  1  0  0  0  0
 82 84  1  0  0  0  0
 82 85  1  0  0  0  0
M  CHG  1  10   1
M  CHG  1  12   1
M  END
>  <IDNUMBER>
AE-508/21136041

>  <NAME>
Thalrugosine (Thaligine; Isofangchinoline)

>  <ADD_INFO>
http://www.specs.net/enter.php?specsid=AE-508/21136041

>  <H_ACCEPTORS>
2

>  <H_DONORS>
1

>  <ROTATABLE_BONDS>
3

>  <LOGP>
7.3499999

>  <LOGS>
-10.01

>  <TPSA>
72.860001

>  <PRICE>
N06

$$$$
AE-508/21136051
  MOE2011           3D

 56 60  0  0  1  0  0  0  0  0999 V2000
   -1.1980   -0.4140   -0.6410 C   0  0  2  0  0  0  0  0  0  0  0  0
    0.2740   -0.2370   -0.6850 C   0  0  0  0  0  0  0  0  0  0  0  0
    1.0770   -0.3780    0.4800 C   0  0  0  0  0  0  0  0  0  0  0  0
    1.0640    0.0650   -1.7490 N   0  0  0  0  0  0  0  0  0  0  0  0
    0.7580    0.2080   -2.7030 H   0  0  0  0  0  0  0  0  0  0  0  0
   -1.8720   -0.3490    1.5690 N   0  3  2  0  0  0  0  0  0  0  0  0
   -1.6490   -1.3430    1.3460 H   0  0  0  0  0  0  0  0  0  0  0  0
   -1.4520    0.6050    0.5220 C   0  0  3  0  0  0  0  0  0  0  0  0
    2.4190   -0.1280    0.0400 C   0  0  0  0  0  0  0  0  0  0  0  0
    2.3760    0.1490   -1.3320 C   0  0  0  0  0  0  0  0  0  0  0  0
   -1.1570   -2.0010   -0.5080 C   0  0  0  0  0  0  0  0  0  0  0  0
   -2.4480    1.8230    0.4150 C   0  0  2  0  0  0  0  0  0  0  0  0
   -2.5340   -0.3420   -1.3450 C   0  0  0  0  0  0  0  0  0  0  0  0
   -2.5660    0.4580   -2.0900 H   0  0  0  0  0  0  0  0  0  0  0  0
   -2.8180   -1.2440   -1.9030 H   0  0  0  0  0  0  0  0  0  0  0  0
    0.6250   -0.7650    1.9640 C   0  0  0  0  0  0  0  0  0  0  0  0
    1.4010   -0.4030    2.6500 H   0  0  0  0  0  0  0  0  0  0  0  0
    0.6720   -1.8620    2.0030 H   0  0  0  0  0  0  0  0  0  0  0  0
   -3.3510   -0.5670    1.3660 C   0  0  0  0  0  0  0  0  0  0  0  0
   -3.5750   -1.6270    1.5250 H   0  0  0  0  0  0  0  0  0  0  0  0
   -3.8910    0.0390    2.1000 H   0  0  0  0  0  0  0  0  0  0  0  0
   -3.6910   -0.1330   -0.1830 C   0  0  3  0  0  0  0  0  0  0  0  0
   -0.8040   -0.3250    2.6170 C   0  0  0  0  0  0  0  0  0  0  0  0
   -0.7540    0.6890    3.0300 H   0  0  0  0  0  0  0  0  0  0  0  0
   -1.0870   -1.0260    3.4090 H   0  0  0  0  0  0  0  0  0  0  0  0
   -3.8070    1.3830   -0.1120 C   0  0  0  0  0  0  0  0  0  0  0  0
   -4.6060    1.6890    0.5730 H   0  0  0  0  0  0  0  0  0  0  0  0
   -4.0560    1.8120   -1.0870 H   0  0  0  0  0  0  0  0  0  0  0  0
    3.6730   -0.1180    0.6940 C   0  0  0  0  0  0  0  0  0  0  0  0
    3.7070   -0.3390    1.7540 H   0  0  0  0  0  0  0  0  0  0  0  0
   -1.4210   -2.5760    0.5470 O   0  0  0  0  0  0  0  0  0  0  0  0
    3.5240    0.4430   -2.0730 C   0  0  0  0  0  0  0  0  0  0  0  0
    3.4780    0.6570   -3.1370 H   0  0  0  0  0  0  0  0  0  0  0  0
    4.8330    0.1740   -0.0330 C   0  0  0  0  0  0  0  0  0  0  0  0
   -0.8070   -2.6060   -1.6780 O   0  0  0  0  0  0  0  0  0  0  0  0
    4.7480    0.4520   -1.3970 C   0  0  0  0  0  0  0  0  0  0  0  0
    5.6560    0.6780   -1.9530 H   0  0  0  0  0  0  0  0  0  0  0  0
   -1.8810    3.0770   -0.2810 C   0  0  0  0  0  0  0  0  0  0  0  0
   -2.6000    3.8970   -0.1530 H   0  0  0  0  0  0  0  0  0  0  0  0
   -0.9710    3.3900    0.2470 H   0  0  0  0  0  0  0  0  0  0  0  0
    6.1040    0.2170    0.4770 O   0  0  0  0  0  0  0  0  0  0  0  0
   -0.7320   -4.0320   -1.6120 C   0  0  0  0  0  0  0  0  0  0  0  0
   -0.4370   -4.4020   -2.5970 H   0  0  0  0  0  0  0  0  0  0  0  0
   -1.7110   -4.4520   -1.3600 H   0  0  0  0  0  0  0  0  0  0  0  0
    0.0230   -4.3400   -0.8820 H   0  0  0  0  0  0  0  0  0  0  0  0
    6.2570   -0.0660    1.8610 C   0  0  0  0  0  0  0  0  0  0  0  0
    7.3220    0.0070    2.1020 H   0  0  0  0  0  0  0  0  0  0  0  0
    5.9330   -1.0860    2.0940 H   0  0  0  0  0  0  0  0  0  0  0  0
    5.7250    0.6680    2.4760 H   0  0  0  0  0  0  0  0  0  0  0  0
   -1.5550    2.9680   -1.7600 C   0  0  0  0  0  0  0  0  0  0  0  0
   -2.4450    2.7600   -2.3590 H   0  0  0  0  0  0  0  0  0  0  0  0
   -0.8100    2.1960   -1.9550 H   0  0  0  0  0  0  0  0  0  0  0  0
   -1.1410    3.9170   -2.1180 H   0  0  0  0  0  0  0  0  0  0  0  0
   -0.5680    1.1520    0.8760 H   0  0  0  0  0  0  0  0  0  0  0  0
   -2.6150    2.1560    1.4530 H   0  0  0  0  0  0  0  0  0  0  0  0
   -4.6410   -0.5710   -0.5050 H   0  0  0  0  0  0  0  0  0  0  0  0
  1  2  1  0  0  0  0
  1  8  1  0  0  0  0
  1 11  1  0  0  0  0
  1 13  1  0  0  0  0
  2  3  2  0  0  0  0
  2  4  1  0  0  0  0
  3  9  1  0  0  0  0
  3 16  1  0  0  0  0
  4  5  1  0  0  0  0
  4 10  1  0  0  0  0
  6  7  1  0  0  0  0
  6  8  1  0  0  0  0
  6 19  1  0  0  0  0
  6 23  1  0  0  0  0
  8 12  1  0  0  0  0
  8 54  1  0  0  0  0
  9 10  2  0  0  0  0
  9 29  1  0  0  0  0
 10 32  1  0  0  0  0
 11 31  2  0  0  0  0
 11 35  1  0  0  0  0
 12 26  1  0  0  0  0
 12 38  1  0  0  0  0
 12 55  1  0  0  0  0
 13 14  1  0  0  0  0
 13 15  1  0  0  0  0
 13 22  1  0  0  0  0
 16 17  1  0  0  0  0
 16 18  1  0  0  0  0
 16 23  1  0  0  0  0
 19 20  1  0  0  0  0
 19 21  1  0  0  0  0
 19 22  1  0  0  0  0
 22 26  1  0  0  0  0
 22 56  1  0  0  0  0
 23 24  1  0  0  0  0
 23 25  1  0  0  0  0
 26 27  1  0  0  0  0
 26 28  1  0  0  0  0
 29 30  1  0  0  0  0
 29 34  2  0  0  0  0
 32 33  1  0  0  0  0
 32 36  2  0  0  0  0
 34 36  1  0  0  0  0
 34 41  1  0  0  0  0
 35 42  1  0  0  0  0
 36 37  1  0  0  0  0
 38 39  1  0  0  0  0
 38 40  1  0  0  0  0
 38 50  1  0  0  0  0
 41 46  1  0  0  0  0
 42 43  1  0  0  0  0
 42 44  1  0  0  0  0
 42 45  1  0  0  0  0
 46 47  1  0  0  0  0
 46 48  1  0  0  0  0
 46 49  1  0  0  0  0
 50 51  1  0  0  0  0
 50 52  1  0  0  0  0
 50 53  1  0  0  0  0
M  CHG  1   6   1
M  END
>  <IDNUMBER>
AE-508/21136051

>  <NAME>
Voacangine

>  <ADD_INFO>
http://www.specs.net/enter.php?specsid=AE-508/21136051

>  <H_ACCEPTORS>
4

>  <H_DONORS>
1

>  <ROTATABLE_BONDS>
4

>  <LOGP>
3.71

>  <LOGS>
-4.04

>  <TPSA>
54.560001

>  <PRICE>
N07

$$$$
AE-508/43280806
  MOE2011           3D

 48 51  0  0  0  0  0  0  0  0999 V2000
    0.3910   -1.0870   -0.2670 N   0  3  0  0  0  0  0  0  0  0  0  0
   -0.2260    0.0930    0.0260 C   0  0  0  0  0  0  0  0  0  0  0  0
    2.5710   -0.1000    0.0230 C   0  0  0  0  0  0  0  0  0  0  0  0
   -1.7030    0.0870    0.0360 C   0  0  0  0  0  0  0  0  0  0  0  0
    1.7420   -1.1850   -0.2770 C   0  0  0  0  0  0  0  0  0  0  0  0
    2.1560   -2.1560   -0.5370 H   0  0  0  0  0  0  0  0  0  0  0  0
    0.5640    1.2100    0.3390 C   0  0  0  0  0  0  0  0  0  0  0  0
    0.0940    2.1540    0.6060 H   0  0  0  0  0  0  0  0  0  0  0  0
   -2.4050   -1.1250    0.1660 C   0  0  0  0  0  0  0  0  0  0  0  0
    3.9810   -0.1980    0.0310 C   0  0  0  0  0  0  0  0  0  0  0  0
    1.9590    1.1260    0.3370 C   0  0  0  0  0  0  0  0  0  0  0  0
   -2.4690    1.2580   -0.0630 C   0  0  0  0  0  0  0  0  0  0  0  0
   -1.9940    2.2290   -0.1960 H   0  0  0  0  0  0  0  0  0  0  0  0
   -3.8740    1.2410   -0.0150 C   0  0  0  0  0  0  0  0  0  0  0  0
   -3.8070   -1.1480    0.2550 C   0  0  0  0  0  0  0  0  0  0  0  0
   -4.2930   -2.1110    0.3910 H   0  0  0  0  0  0  0  0  0  0  0  0
   -4.5560    0.0310    0.1770 C   0  0  0  0  0  0  0  0  0  0  0  0
   -0.3990   -2.2890   -0.6410 C   0  0  0  0  0  0  0  0  0  0  0  0
   -0.6620   -2.1630   -1.6980 H   0  0  0  0  0  0  0  0  0  0  0  0
    0.2280   -3.1800   -0.5340 H   0  0  0  0  0  0  0  0  0  0  0  0
    4.7570    0.9380    0.2920 C   0  0  0  0  0  0  0  0  0  0  0  0
   -1.6200   -2.4040    0.2530 C   0  0  0  0  0  0  0  0  0  0  0  0
   -2.2260   -3.2580   -0.0710 H   0  0  0  0  0  0  0  0  0  0  0  0
   -1.3250   -2.5690    1.2960 H   0  0  0  0  0  0  0  0  0  0  0  0
    2.7560    2.2390    0.6480 C   0  0  0  0  0  0  0  0  0  0  0  0
    2.3020    3.1950    0.9030 H   0  0  0  0  0  0  0  0  0  0  0  0
    4.1470    2.1450    0.6270 C   0  0  0  0  0  0  0  0  0  0  0  0
    4.7540    3.0170    0.8600 H   0  0  0  0  0  0  0  0  0  0  0  0
    4.5110   -1.4270   -0.2830 O   0  0  0  0  0  0  0  0  0  0  0  0
   -4.4260    2.4930   -0.1140 O   0  0  0  0  0  0  0  0  0  0  0  0
   -5.9170    0.0770    0.3010 O   0  0  0  0  0  0  0  0  0  0  0  0
    6.1260    0.9080    0.2680 O   0  0  0  0  0  0  0  0  0  0  0  0
    5.5260   -1.8700    0.6190 C   0  0  0  0  0  0  0  0  0  0  0  0
    5.4850   -2.9640    0.6490 H   0  0  0  0  0  0  0  0  0  0  0  0
    5.3740   -1.5030    1.6400 H   0  0  0  0  0  0  0  0  0  0  0  0
    6.5150   -1.5880    0.2450 H   0  0  0  0  0  0  0  0  0  0  0  0
   -6.6140   -1.1350    0.5600 C   0  0  0  0  0  0  0  0  0  0  0  0
   -7.6780   -0.8960    0.6470 H   0  0  0  0  0  0  0  0  0  0  0  0
   -6.2940   -1.5800    1.5070 H   0  0  0  0  0  0  0  0  0  0  0  0
   -6.4990   -1.8400   -0.2700 H   0  0  0  0  0  0  0  0  0  0  0  0
   -5.7000    2.5830   -0.7450 C   0  0  0  0  0  0  0  0  0  0  0  0
   -5.8030    3.6010   -1.1340 H   0  0  0  0  0  0  0  0  0  0  0  0
   -6.5000    2.4310   -0.0150 H   0  0  0  0  0  0  0  0  0  0  0  0
   -5.7940    1.8980   -1.5940 H   0  0  0  0  0  0  0  0  0  0  0  0
    6.6000    1.1570   -1.0570 C   0  0  0  0  0  0  0  0  0  0  0  0
    7.6930    1.1220   -1.0330 H   0  0  0  0  0  0  0  0  0  0  0  0
    6.2990    2.1520   -1.4030 H   0  0  0  0  0  0  0  0  0  0  0  0
    6.2510    0.3890   -1.7560 H   0  0  0  0  0  0  0  0  0  0  0  0
  1  2  1  0  0  0  0
  1  5  2  0  0  0  0
  1 18  1  0  0  0  0
  2  4  1  0  0  0  0
  2  7  2  0  0  0  0
  3  5  1  0  0  0  0
  3 10  2  0  0  0  0
  3 11  1  0  0  0  0
  4  9  2  0  0  0  0
  4 12  1  0  0  0  0
  5  6  1  0  0  0  0
  7  8  1  0  0  0  0
  7 11  1  0  0  0  0
  9 15  1  0  0  0  0
  9 22  1  0  0  0  0
 10 21  1  0  0  0  0
 10 29  1  0  0  0  0
 11 25  2  0  0  0  0
 12 13  1  0  0  0  0
 12 14  2  0  0  0  0
 14 17  1  0  0  0  0
 14 30  1  0  0  0  0
 15 16  1  0  0  0  0
 15 17  2  0  0  0  0
 17 31  1  0  0  0  0
 18 19  1  0  0  0  0
 18 20  1  0  0  0  0
 18 22  1  0  0  0  0
 21 27  2  0  0  0  0
 21 32  1  0  0  0  0
 22 23  1  0  0  0  0
 22 24  1  0  0  0  0
 25 26  1  0  0  0  0
 25 27  1  0  0  0  0
 27 28  1  0  0  0  0
 29 33  1  0  0  0  0
 30 41  1  0  0  0  0
 31 37  1  0  0  0  0
 32 45  1  0  0  0  0
 33 34  1  0  0  0  0
 33 35  1  0  0  0  0
 33 36  1  0  0  0  0
 37 38  1  0  0  0  0
 37 39  1  0  0  0  0
 37 40  1  0  0  0  0
 41 42  1  0  0  0  0
 41 43  1  0  0  0  0
 41 44  1  0  0  0  0
 45 46  1  0  0  0  0
 45 47  1  0  0  0  0
 45 48  1  0  0  0  0
M  CHG  1   1   1
M  END
>  <IDNUMBER>
AE-508/43280806

>  <NAME>
Palmatine

>  <ADD_INFO>
http://www.specs.net/enter.php?specsid=AE-508/43280806

>  <H_ACCEPTORS>
0

>  <H_DONORS>
0

>  <ROTATABLE_BONDS>
4

>  <LOGP>
1.66

>  <LOGS>
-4.3099999

>  <TPSA>
40.799999

>  <PRICE>
N07

>  <SALTDATA>
Cl-

$$$$
AE-562/12222312
  MOE2011           3D

 75 78  0  0  1  0  0  0  0  0999 V2000
   -1.8020    0.9410    0.5310 C   0  0  1  0  0  0  0  0  0  0  0  0
    0.7210    0.0880    0.0710 C   0  0  2  0  0  0  0  0  0  0  0  0
   -2.3760    0.0050   -0.5260 C   0  0  3  0  0  0  0  0  0  0  0  0
   -0.2720    1.0380    0.5420 C   0  0  3  0  0  0  0  0  0  0  0  0
   -3.9560   -0.1330   -0.5020 C   0  0  2  0  0  0  0  0  0  0  0  0
   -0.0970   -1.1480   -0.6420 C   0  0  2  0  0  0  0  0  0  0  0  0
   -1.6160   -1.2960   -0.4340 C   0  0  0  0  0  0  0  0  0  0  0  0
   -1.9880   -1.9980   -1.1930 H   0  0  0  0  0  0  0  0  0  0  0  0
   -1.8060   -1.7940    0.5260 H   0  0  0  0  0  0  0  0  0  0  0  0
    2.0300   -0.5920   -0.1880 C   0  0  3  0  0  0  0  0  0  0  0  0
   -4.5900    1.0180    0.3390 C   0  0  3  0  0  0  0  0  0  0  0  0
    0.3350    1.6090   -1.0380 C   0  0  0  0  0  0  0  0  0  0  0  0
   -0.3830    1.4390   -1.8470 H   0  0  0  0  0  0  0  0  0  0  0  0
    0.5890    2.6760   -1.0160 H   0  0  0  0  0  0  0  0  0  0  0  0
   -2.4330    2.3520    0.3920 C   0  0  0  0  0  0  0  0  0  0  0  0
   -2.3050    2.8930    1.3390 H   0  0  0  0  0  0  0  0  0  0  0  0
   -1.9130    2.9400   -0.3730 H   0  0  0  0  0  0  0  0  0  0  0  0
   -4.4960   -1.4540    0.1110 C   0  0  0  0  0  0  0  0  0  0  0  0
   -4.1300   -2.3220   -0.4480 H   0  0  0  0  0  0  0  0  0  0  0  0
   -4.1260   -1.5610    1.1390 H   0  0  0  0  0  0  0  0  0  0  0  0
    1.8400    0.6250   -1.4760 C   0  0  0  0  0  0  0  0  0  0  0  0
    2.7000    1.2870   -1.6240 H   0  0  0  0  0  0  0  0  0  0  0  0
    1.6230    0.1300   -2.4320 H   0  0  0  0  0  0  0  0  0  0  0  0
    9.1800    0.3810    0.8970 C   0  0  0  0  0  0  0  0  0  0  0  0
    5.7840    0.3040   -0.8250 C   0  0  0  0  0  0  0  0  0  0  0  0
   -3.9320    2.3610    0.0390 C   0  0  0  0  0  0  0  0  0  0  0  0
   -4.0570    2.6180   -1.0200 H   0  0  0  0  0  0  0  0  0  0  0  0
   -4.4240    3.1640    0.6020 H   0  0  0  0  0  0  0  0  0  0  0  0
    6.9870    0.0000   -0.2380 N   0  0  0  0  0  0  0  0  0  0  0  0
    7.3340   -0.9540   -0.1460 H   0  0  0  0  0  0  0  0  0  0  0  0
   -6.1230    1.0370    0.2450 C   0  0  0  0  0  0  0  0  0  0  0  0
   -6.4520    1.2390   -0.7790 H   0  0  0  0  0  0  0  0  0  0  0  0
   -6.5070    1.8550    0.8680 H   0  0  0  0  0  0  0  0  0  0  0  0
    9.9760    1.1980    1.4390 O   0  5  0  0  0  0  0  0  0  0  0  0
   -2.1440    0.4580    1.8430 O   0  0  0  0  0  0  0  0  0  0  0  0
   -1.5700   -0.2980    2.0560 H   0  0  0  0  0  0  0  0  0  0  0  0
    9.2690   -0.8770    0.7620 O   0  0  0  0  0  0  0  0  0  0  0  0
    5.3580    1.4450   -0.9760 O   0  0  0  0  0  0  0  0  0  0  0  0
    3.2900   -0.8960    0.6730 C   0  0  3  0  0  0  0  0  0  0  0  0
    4.3780   -1.6760   -0.1150 C   0  0  0  0  0  0  0  0  0  0  0  0
    5.1710   -1.9730    0.5850 H   0  0  0  0  0  0  0  0  0  0  0  0
    3.9520   -2.6120   -0.5000 H   0  0  0  0  0  0  0  0  0  0  0  0
    7.8990    1.0020    0.3070 C   0  0  0  0  0  0  0  0  0  0  0  0
    8.1610    1.6950   -0.5000 H   0  0  0  0  0  0  0  0  0  0  0  0
    7.3630    1.5590    1.0830 H   0  0  0  0  0  0  0  0  0  0  0  0
    0.3620   -2.4410   -0.1760 O   0  0  0  0  0  0  0  0  0  0  0  0
    0.0220   -3.1140   -0.7910 H   0  0  0  0  0  0  0  0  0  0  0  0
    5.0060   -0.9130   -1.2800 C   0  0  0  0  0  0  0  0  0  0  0  0
    4.2530   -0.6030   -2.0100 H   0  0  0  0  0  0  0  0  0  0  0  0
    5.6960   -1.5770   -1.8140 H   0  0  0  0  0  0  0  0  0  0  0  0
    1.9150    1.3160    0.7490 C   0  0  0  0  0  0  0  0  0  0  0  0
    1.5710    2.3660    0.7750 H   0  0  0  0  0  0  0  0  0  0  0  0
    2.9020    1.4600    0.2910 H   0  0  0  0  0  0  0  0  0  0  0  0
    2.0500    1.0550    1.8130 H   0  0  0  0  0  0  0  0  0  0  0  0
   -6.0350   -1.5260    0.1360 C   0  0  0  0  0  0  0  0  0  0  0  0
   -6.3240   -2.4230    0.6970 H   0  0  0  0  0  0  0  0  0  0  0  0
   -6.4080   -1.6700   -0.8840 H   0  0  0  0  0  0  0  0  0  0  0  0
   -6.7070   -0.2910    0.7460 C   0  0  1  0  0  0  0  0  0  0  0  0
   -4.3960   -0.0810   -1.9960 C   0  0  0  0  0  0  0  0  0  0  0  0
   -5.4760   -0.1600   -2.1390 H   0  0  0  0  0  0  0  0  0  0  0  0
   -3.9400   -0.9050   -2.5580 H   0  0  0  0  0  0  0  0  0  0  0  0
   -4.0850    0.8540   -2.4760 H   0  0  0  0  0  0  0  0  0  0  0  0
   -6.5630   -0.3360    2.1670 O   0  0  0  0  0  0  0  0  0  0  0  0
   -6.9640   -1.1650    2.4790 H   0  0  0  0  0  0  0  0  0  0  0  0
    2.8570   -1.7530    1.8730 C   0  0  0  0  0  0  0  0  0  0  0  0
    3.7080   -1.9470    2.5350 H   0  0  0  0  0  0  0  0  0  0  0  0
    2.4600   -2.7210    1.5510 H   0  0  0  0  0  0  0  0  0  0  0  0
    2.0870   -1.2480    2.4650 H   0  0  0  0  0  0  0  0  0  0  0  0
   -2.1260    0.4380   -1.5020 H   0  0  0  0  0  0  0  0  0  0  0  0
   -0.0440    1.6930    1.3890 H   0  0  0  0  0  0  0  0  0  0  0  0
    0.0460   -1.1170   -1.7310 H   0  0  0  0  0  0  0  0  0  0  0  0
    2.0610   -1.4430   -0.8840 H   0  0  0  0  0  0  0  0  0  0  0  0
   -4.3890    0.8230    1.4000 H   0  0  0  0  0  0  0  0  0  0  0  0
    3.8050   -0.0250    1.0840 H   0  0  0  0  0  0  0  0  0  0  0  0
   -7.7830   -0.3140    0.5380 H   0  0  0  0  0  0  0  0  0  0  0  0
  1  3  1  0  0  0  0
  1  4  1  0  0  0  0
  1 15  1  0  0  0  0
  1 35  1  0  0  0  0
  2  4  1  0  0  0  0
  2  6  1  0  0  0  0
  2 10  1  0  0  0  0
  2 51  1  0  0  0  0
  3  5  1  0  0  0  0
  3  7  1  0  0  0  0
  3 69  1  0  0  0  0
  4 12  1  0  0  0  0
  4 70  1  0  0  0  0
  5 11  1  0  0  0  0
  5 18  1  0  0  0  0
  5 59  1  0  0  0  0
  6  7  1  0  0  0  0
  6 46  1  0  0  0  0
  6 71  1  0  0  0  0
  7  8  1  0  0  0  0
  7  9  1  0  0  0  0
 10 21  1  0  0  0  0
 10 39  1  0  0  0  0
 10 72  1  0  0  0  0
 11 26  1  0  0  0  0
 11 31  1  0  0  0  0
 11 73  1  0  0  0  0
 12 13  1  0  0  0  0
 12 14  1  0  0  0  0
 12 21  1  0  0  0  0
 15 16  1  0  0  0  0
 15 17  1  0  0  0  0
 15 26  1  0  0  0  0
 18 19  1  0  0  0  0
 18 20  1  0  0  0  0
 18 55  1  0  0  0  0
 21 22  1  0  0  0  0
 21 23  1  0  0  0  0
 24 34  1  0  0  0  0
 24 37  2  0  0  0  0
 24 43  1  0  0  0  0
 25 29  1  0  0  0  0
 25 38  2  0  0  0  0
 25 48  1  0  0  0  0
 26 27  1  0  0  0  0
 26 28  1  0  0  0  0
 29 30  1  0  0  0  0
 29 43  1  0  0  0  0
 31 32  1  0  0  0  0
 31 33  1  0  0  0  0
 31 58  1  0  0  0  0
 35 36  1  0  0  0  0
 39 40  1  0  0  0  0
 39 65  1  0  0  0  0
 39 74  1  0  0  0  0
 40 41  1  0  0  0  0
 40 42  1  0  0  0  0
 40 48  1  0  0  0  0
 43 44  1  0  0  0  0
 43 45  1  0  0  0  0
 46 47  1  0  0  0  0
 48 49  1  0  0  0  0
 48 50  1  0  0  0  0
 51 52  1  0  0  0  0
 51 53  1  0  0  0  0
 51 54  1  0  0  0  0
 55 56  1  0  0  0  0
 55 57  1  0  0  0  0
 55 58  1  0  0  0  0
 58 63  1  0  0  0  0
 58 75  1  0  0  0  0
 59 60  1  0  0  0  0
 59 61  1  0  0  0  0
 59 62  1  0  0  0  0
 63 64  1  0  0  0  0
 65 66  1  0  0  0  0
 65 67  1  0  0  0  0
 65 68  1  0  0  0  0
M  CHG  1  34  -1
M  END
>  <IDNUMBER>
AE-562/12222312

>  <NAME>
[(3,8,12-trihydroxy-24-oxocholan-24-yl)amino]acetate

>  <ADD_INFO>
http://www.specs.net/enter.php?specsid=AE-562/12222312

>  <H_ACCEPTORS>
7

>  <H_DONORS>
4

>  <ROTATABLE_BONDS>
7

>  <LOGP>
2.4400001

>  <LOGS>
-4.6799998

>  <TPSA>
129.92

>  <PRICE>
N06

>  <SALTDATA>
Na+

$$$$
AE-562/12222672
  MOE2011           3D

 51 53  0  0  1  0  0  0  0  0999 V2000
   -0.1710    2.6260    0.2930 N   0  3  0  0  0  0  0  0  0  0  0  0
   -1.5330    0.6540   -0.6380 C   0  0  0  0  0  0  0  0  0  0  0  0
   -0.5470    1.7660   -0.9590 C   0  0  3  0  0  0  0  0  0  0  0  0
   -1.6490    0.1280    0.6640 C   0  0  0  0  0  0  0  0  0  0  0  0
   -2.3410    0.1280   -1.6590 C   0  0  0  0  0  0  0  0  0  0  0  0
   -2.2900    0.5130   -2.6750 H   0  0  0  0  0  0  0  0  0  0  0  0
   -3.2310   -0.9030   -1.3800 C   0  0  0  0  0  0  0  0  0  0  0  0
   -2.5560   -0.9200    0.9230 C   0  0  0  0  0  0  0  0  0  0  0  0
   -2.6360   -1.2980    1.9380 H   0  0  0  0  0  0  0  0  0  0  0  0
   -3.3470   -1.4450   -0.0990 C   0  0  0  0  0  0  0  0  0  0  0  0
    3.8720   -0.2980   -0.4780 C   0  0  0  0  0  0  0  0  0  0  0  0
    0.6660    1.2660   -1.8140 C   0  0  0  0  0  0  0  0  0  0  0  0
    0.2720    0.8150   -2.7370 H   0  0  0  0  0  0  0  0  0  0  0  0
    1.2250    2.1390   -2.1740 H   0  0  0  0  0  0  0  0  0  0  0  0
    0.2220    1.7080    1.4540 C   0  0  0  0  0  0  0  0  0  0  0  0
    1.1320    1.1780    1.1660 H   0  0  0  0  0  0  0  0  0  0  0  0
    0.4710    2.3420    2.3130 H   0  0  0  0  0  0  0  0  0  0  0  0
    3.4920   -1.6120   -0.1970 C   0  0  0  0  0  0  0  0  0  0  0  0
    2.9740    0.6280   -1.0030 C   0  0  0  0  0  0  0  0  0  0  0  0
    3.3350    1.6270   -1.2290 H   0  0  0  0  0  0  0  0  0  0  0  0
    1.6420    0.2620   -1.2390 C   0  0  0  0  0  0  0  0  0  0  0  0
   -0.8860    0.7210    1.8230 C   0  0  0  0  0  0  0  0  0  0  0  0
   -0.4400   -0.0880    2.4160 H   0  0  0  0  0  0  0  0  0  0  0  0
   -1.6090    1.2280    2.4750 H   0  0  0  0  0  0  0  0  0  0  0  0
    2.1800   -1.9950   -0.4610 C   0  0  0  0  0  0  0  0  0  0  0  0
    1.8310   -3.0070   -0.2810 H   0  0  0  0  0  0  0  0  0  0  0  0
    1.2670   -1.0670   -0.9860 C   0  0  0  0  0  0  0  0  0  0  0  0
    0.2600   -1.4140   -1.2090 H   0  0  0  0  0  0  0  0  0  0  0  0
   -1.3820    3.4960    0.6900 C   0  0  0  0  0  0  0  0  0  0  0  0
   -1.1370    4.0230    1.6160 H   0  0  0  0  0  0  0  0  0  0  0  0
   -2.2620    2.8660    0.8360 H   0  0  0  0  0  0  0  0  0  0  0  0
   -1.5670    4.2110   -0.1180 H   0  0  0  0  0  0  0  0  0  0  0  0
    0.9700    3.6050    0.0160 C   0  0  0  0  0  0  0  0  0  0  0  0
    1.0640    4.2770    0.8750 H   0  0  0  0  0  0  0  0  0  0  0  0
    0.7270    4.1720   -0.8870 H   0  0  0  0  0  0  0  0  0  0  0  0
    1.9000    3.0510   -0.1040 H   0  0  0  0  0  0  0  0  0  0  0  0
   -4.0080   -1.3850   -2.3990 O   0  0  0  0  0  0  0  0  0  0  0  0
   -4.5600   -2.0820   -1.9890 H   0  0  0  0  0  0  0  0  0  0  0  0
    5.1580    0.1070   -0.2410 O   0  0  0  0  0  0  0  0  0  0  0  0
    5.6160   -0.6890    0.0960 H   0  0  0  0  0  0  0  0  0  0  0  0
   -4.2650   -2.4560    0.0140 O   0  0  0  0  0  0  0  0  0  0  0  0
    4.4870   -2.4010    0.3160 O   0  0  0  0  0  0  0  0  0  0  0  0
   -4.3870   -3.0690    1.2930 C   0  0  0  0  0  0  0  0  0  0  0  0
   -5.1310   -3.8670    1.2100 H   0  0  0  0  0  0  0  0  0  0  0  0
   -4.7480   -2.3530    2.0390 H   0  0  0  0  0  0  0  0  0  0  0  0
   -3.4420   -3.5250    1.6050 H   0  0  0  0  0  0  0  0  0  0  0  0
    4.1550   -3.7630    0.5650 C   0  0  0  0  0  0  0  0  0  0  0  0
    5.0500   -4.2590    0.9540 H   0  0  0  0  0  0  0  0  0  0  0  0
    3.8650   -4.2730   -0.3590 H   0  0  0  0  0  0  0  0  0  0  0  0
    3.3710   -3.8440    1.3250 H   0  0  0  0  0  0  0  0  0  0  0  0
   -1.0800    2.4810   -1.6020 H   0  0  0  0  0  0  0  0  0  0  0  0
  1  3  1  0  0  0  0
  1 15  1  0  0  0  0
  1 29  1  0  0  0  0
  1 33  1  0  0  0  0
  2  3  1  0  0  0  0
  2  4  2  0  0  0  0
  2  5  1  0  0  0  0
  3 12  1  0  0  0  0
  3 51  1  0  0  0  0
  4  8  1  0  0  0  0
  4 22  1  0  0  0  0
  5  6  1  0  0  0  0
  5  7  2  0  0  0  0
  7 10  1  0  0  0  0
  7 37  1  0  0  0  0
  8  9  1  0  0  0  0
  8 10  2  0  0  0  0
 10 41  1  0  0  0  0
 11 18  2  0  0  0  0
 11 19  1  0  0  0  0
 11 39  1  0  0  0  0
 12 13  1  0  0  0  0
 12 14  1  0  0  0  0
 12 21  1  0  0  0  0
 15 16  1  0  0  0  0
 15 17  1  0  0  0  0
 15 22  1  0  0  0  0
 18 25  1  0  0  0  0
 18 42  1  0  0  0  0
 19 20  1  0  0  0  0
 19 21  2  0  0  0  0
 21 27  1  0  0  0  0
 22 23  1  0  0  0  0
 22 24  1  0  0  0  0
 25 26  1  0  0  0  0
 25 27  2  0  0  0  0
 27 28  1  0  0  0  0
 29 30  1  0  0  0  0
 29 31  1  0  0  0  0
 29 32  1  0  0  0  0
 33 34  1  0  0  0  0
 33 35  1  0  0  0  0
 33 36  1  0  0  0  0
 37 38  1  0  0  0  0
 39 40  1  0  0  0  0
 41 43  1  0  0  0  0
 42 47  1  0  0  0  0
 43 44  1  0  0  0  0
 43 45  1  0  0  0  0
 43 46  1  0  0  0  0
 47 48  1  0  0  0  0
 47 49  1  0  0  0  0
 47 50  1  0  0  0  0
M  CHG  1   1   1
M  END
>  <IDNUMBER>
AE-562/12222672

>  <NAME>
Reticuline, N-Me derivative of

>  <ADD_INFO>
http://www.specs.net/enter.php?specsid=AE-562/12222672

>  <H_ACCEPTORS>
0

>  <H_DONORS>
2

>  <ROTATABLE_BONDS>
4

>  <LOGP>
2.03

>  <LOGS>
-3.45

>  <TPSA>
58.919998

>  <PRICE>
N06

>  <SALTDATA>
I-

$$$$
AE-562/43459779
  MOE2011           3D

 96102  0  0  1  0  0  0  0  0999 V2000
    3.9690   -0.6470   -0.3540 C   0  0  0  0  0  0  0  0  0  0  0  0
    3.8890    0.5420    0.4080 C   0  0  0  0  0  0  0  0  0  0  0  0
    3.1370   -1.8740    0.0170 C   0  0  2  0  0  0  0  0  0  0  0  0
    3.8220   -3.2190   -0.4420 N   0  3  0  0  0  0  0  0  0  0  0  0
   -4.0940    3.6430   -0.0160 N   0  3  0  0  0  0  0  0  0  0  0  0
   -3.7460    1.0890   -0.3670 C   0  0  0  0  0  0  0  0  0  0  0  0
   -3.0910    2.4220    0.0260 C   0  0  2  0  0  0  0  0  0  0  0  0
    4.7290    1.6380    0.1360 C   0  0  0  0  0  0  0  0  0  0  0  0
    4.8640   -0.6880   -1.4380 C   0  0  0  0  0  0  0  0  0  0  0  0
   -3.0870   -2.6050   -0.2770 O   0  0  0  0  0  0  0  0  0  0  0  0
   -3.6630   -1.3650   -0.5140 C   0  0  0  0  0  0  0  0  0  0  0  0
    3.0880    0.5750    1.5320 O   0  0  0  0  0  0  0  0  0  0  0  0
   -3.1180   -0.1390   -0.0900 C   0  0  0  0  0  0  0  0  0  0  0  0
   -2.1840   -0.1440    0.4590 H   0  0  0  0  0  0  0  0  0  0  0  0
   -4.9450    1.0530   -1.1030 C   0  0  0  0  0  0  0  0  0  0  0  0
   -1.8810   -2.6540    0.3710 C   0  0  0  0  0  0  0  0  0  0  0  0
    5.5580    1.6150   -0.9860 C   0  0  0  0  0  0  0  0  0  0  0  0
    5.6320    0.4480   -1.7490 C   0  0  0  0  0  0  0  0  0  0  0  0
    6.3310    0.4170   -2.5850 H   0  0  0  0  0  0  0  0  0  0  0  0
   -4.8700   -1.3870   -1.2210 C   0  0  0  0  0  0  0  0  0  0  0  0
   -5.5030   -0.1780   -1.5060 C   0  0  0  0  0  0  0  0  0  0  0  0
   -6.4420   -0.1590   -2.0540 H   0  0  0  0  0  0  0  0  0  0  0  0
    1.6930   -1.7370   -0.5440 C   0  0  0  0  0  0  0  0  0  0  0  0
    1.4690   -0.6770   -0.7130 H   0  0  0  0  0  0  0  0  0  0  0  0
    1.6290   -2.1840   -1.5420 H   0  0  0  0  0  0  0  0  0  0  0  0
    4.2080   -3.1250   -1.9220 C   0  0  0  0  0  0  0  0  0  0  0  0
    4.6810   -4.0730   -2.2070 H   0  0  0  0  0  0  0  0  0  0  0  0
    3.2830   -3.0310   -2.5000 H   0  0  0  0  0  0  0  0  0  0  0  0
   -4.8710    3.5690   -1.3420 C   0  0  0  0  0  0  0  0  0  0  0  0
   -5.5090    4.4580   -1.4110 H   0  0  0  0  0  0  0  0  0  0  0  0
   -4.1280    3.6100   -2.1490 H   0  0  0  0  0  0  0  0  0  0  0  0
   -2.3250    2.4090    1.3910 C   0  0  0  0  0  0  0  0  0  0  0  0
   -2.2840    3.4040    1.8420 H   0  0  0  0  0  0  0  0  0  0  0  0
   -2.8900    1.7890    2.1010 H   0  0  0  0  0  0  0  0  0  0  0  0
   -0.7250   -2.3270   -0.3520 C   0  0  0  0  0  0  0  0  0  0  0  0
   -0.8220   -2.0690   -1.4050 H   0  0  0  0  0  0  0  0  0  0  0  0
   -1.8000   -3.0130    1.7160 C   0  0  0  0  0  0  0  0  0  0  0  0
    5.1370   -1.9520   -2.2120 C   0  0  0  0  0  0  0  0  0  0  0  0
    6.1670   -2.2610   -1.9920 H   0  0  0  0  0  0  0  0  0  0  0  0
    5.0970   -1.7370   -3.2870 H   0  0  0  0  0  0  0  0  0  0  0  0
    0.5270   -2.2560    0.2790 C   0  0  0  0  0  0  0  0  0  0  0  0
   -5.7080    2.3050   -1.4390 C   0  0  0  0  0  0  0  0  0  0  0  0
   -6.5780    2.3740   -0.7750 H   0  0  0  0  0  0  0  0  0  0  0  0
   -6.0950    2.2350   -2.4640 H   0  0  0  0  0  0  0  0  0  0  0  0
    1.8200    1.1070    1.4250 C   0  0  0  0  0  0  0  0  0  0  0  0
   -0.5590   -2.9500    2.3470 C   0  0  0  0  0  0  0  0  0  0  0  0
   -0.4830   -3.1920    3.4050 H   0  0  0  0  0  0  0  0  0  0  0  0
    4.7120    2.7160    0.9830 O   0  0  0  0  0  0  0  0  0  0  0  0
   -0.8760    1.9550    1.3680 C   0  0  0  0  0  0  0  0  0  0  0  0
    0.5890   -2.5690    1.6420 C   0  0  0  0  0  0  0  0  0  0  0  0
    1.5120   -2.5130    2.2110 H   0  0  0  0  0  0  0  0  0  0  0  0
    6.4040    2.6130   -1.3890 O   0  0  0  0  0  0  0  0  0  0  0  0
    5.0670   -3.4790    0.4260 C   0  0  0  0  0  0  0  0  0  0  0  0
    5.5640   -4.3790    0.0520 H   0  0  0  0  0  0  0  0  0  0  0  0
    4.7380   -3.6270    1.4590 H   0  0  0  0  0  0  0  0  0  0  0  0
    5.7450   -2.6250    0.3720 H   0  0  0  0  0  0  0  0  0  0  0  0
    2.9110   -4.4390   -0.2510 C   0  0  0  0  0  0  0  0  0  0  0  0
    3.4860   -5.3360   -0.5040 H   0  0  0  0  0  0  0  0  0  0  0  0
    2.0550   -4.3600   -0.9240 H   0  0  0  0  0  0  0  0  0  0  0  0
    2.5990   -4.4770    0.7950 H   0  0  0  0  0  0  0  0  0  0  0  0
   -3.3360    4.9810   -0.0400 C   0  0  0  0  0  0  0  0  0  0  0  0
   -4.0620    5.7830   -0.2090 H   0  0  0  0  0  0  0  0  0  0  0  0
   -2.6050    4.9510   -0.8520 H   0  0  0  0  0  0  0  0  0  0  0  0
   -2.8410    5.1420    0.9190 H   0  0  0  0  0  0  0  0  0  0  0  0
   -5.0540    3.6520    1.1740 C   0  0  0  0  0  0  0  0  0  0  0  0
   -5.8270    4.4030    0.9850 H   0  0  0  0  0  0  0  0  0  0  0  0
   -4.4970    3.9170    2.0770 H   0  0  0  0  0  0  0  0  0  0  0  0
   -5.4990    2.6610    1.2900 H   0  0  0  0  0  0  0  0  0  0  0  0
   -5.3370   -2.6240   -1.5850 O   0  0  0  0  0  0  0  0  0  0  0  0
    1.3660    1.9420    0.4040 C   0  0  0  0  0  0  0  0  0  0  0  0
    2.0280    2.2820   -0.3870 H   0  0  0  0  0  0  0  0  0  0  0  0
    0.9420    0.7500    2.4500 C   0  0  0  0  0  0  0  0  0  0  0  0
    1.2880    0.1280    3.2720 H   0  0  0  0  0  0  0  0  0  0  0  0
    0.0320    2.3720    0.3830 C   0  0  0  0  0  0  0  0  0  0  0  0
   -0.2690    3.0460   -0.4150 H   0  0  0  0  0  0  0  0  0  0  0  0
   -0.3930    1.1620    2.4190 C   0  0  0  0  0  0  0  0  0  0  0  0
   -1.0530    0.8540    3.2280 H   0  0  0  0  0  0  0  0  0  0  0  0
   -2.8440   -3.3560    2.5300 O   0  0  0  0  0  0  0  0  0  0  0  0
    5.7230    2.5690    1.9840 C   0  0  0  0  0  0  0  0  0  0  0  0
    5.6840    3.4510    2.6300 H   0  0  0  0  0  0  0  0  0  0  0  0
    6.7230    2.5180    1.5390 H   0  0  0  0  0  0  0  0  0  0  0  0
    5.5380    1.6850    2.6050 H   0  0  0  0  0  0  0  0  0  0  0  0
    5.8800    3.9350   -1.3050 C   0  0  0  0  0  0  0  0  0  0  0  0
    6.3830    4.5400   -2.0660 H   0  0  0  0  0  0  0  0  0  0  0  0
    6.1100    4.3750   -0.3310 H   0  0  0  0  0  0  0  0  0  0  0  0
    4.8040    3.9730   -1.5100 H   0  0  0  0  0  0  0  0  0  0  0  0
   -6.5800   -2.6870   -2.2710 C   0  0  0  0  0  0  0  0  0  0  0  0
   -6.8030   -3.7410   -2.4620 H   0  0  0  0  0  0  0  0  0  0  0  0
   -6.5220   -2.1790   -3.2390 H   0  0  0  0  0  0  0  0  0  0  0  0
   -7.3910   -2.2810   -1.6570 H   0  0  0  0  0  0  0  0  0  0  0  0
   -3.8370   -4.1920    1.9410 C   0  0  0  0  0  0  0  0  0  0  0  0
   -4.3070   -4.7650    2.7460 H   0  0  0  0  0  0  0  0  0  0  0  0
   -3.4130   -4.9070    1.2270 H   0  0  0  0  0  0  0  0  0  0  0  0
   -4.6170   -3.5840    1.4730 H   0  0  0  0  0  0  0  0  0  0  0  0
    3.1410   -1.9410    1.1080 H   0  0  0  0  0  0  0  0  0  0  0  0
   -2.3940    2.6430   -0.7910 H   0  0  0  0  0  0  0  0  0  0  0  0
  1  2  2  0  0  0  0
  1  3  1  0  0  0  0
  1  9  1  0  0  0  0
  2  8  1  0  0  0  0
  2 12  1  0  0  0  0
  3  4  1  0  0  0  0
  3 23  1  0  0  0  0
  3 95  1  0  0  0  0
  4 26  1  0  0  0  0
  4 53  1  0  0  0  0
  4 57  1  0  0  0  0
  5  7  1  0  0  0  0
  5 29  1  0  0  0  0
  5 61  1  0  0  0  0
  5 65  1  0  0  0  0
  6  7  1  0  0  0  0
  6 13  2  0  0  0  0
  6 15  1  0  0  0  0
  7 32  1  0  0  0  0
  7 96  1  0  0  0  0
  8 17  2  0  0  0  0
  8 48  1  0  0  0  0
  9 18  2  0  0  0  0
  9 38  1  0  0  0  0
 10 11  1  0  0  0  0
 10 16  1  0  0  0  0
 11 13  1  0  0  0  0
 11 20  2  0  0  0  0
 12 45  1  0  0  0  0
 13 14  1  0  0  0  0
 15 21  2  0  0  0  0
 15 42  1  0  0  0  0
 16 35  2  0  0  0  0
 16 37  1  0  0  0  0
 17 18  1  0  0  0  0
 17 52  1  0  0  0  0
 18 19  1  0  0  0  0
 20 21  1  0  0  0  0
 20 69  1  0  0  0  0
 21 22  1  0  0  0  0
 23 24  1  0  0  0  0
 23 25  1  0  0  0  0
 23 41  1  0  0  0  0
 26 27  1  0  0  0  0
 26 28  1  0  0  0  0
 26 38  1  0  0  0  0
 29 30  1  0  0  0  0
 29 31  1  0  0  0  0
 29 42  1  0  0  0  0
 32 33  1  0  0  0  0
 32 34  1  0  0  0  0
 32 49  1  0  0  0  0
 35 36  1  0  0  0  0
 35 41  1  0  0  0  0
 37 46  2  0  0  0  0
 37 78  1  0  0  0  0
 38 39  1  0  0  0  0
 38 40  1  0  0  0  0
 41 50  2  0  0  0  0
 42 43  1  0  0  0  0
 42 44  1  0  0  0  0
 45 70  2  0  0  0  0
 45 72  1  0  0  0  0
 46 47  1  0  0  0  0
 46 50  1  0  0  0  0
 48 79  1  0  0  0  0
 49 74  2  0  0  0  0
 49 76  1  0  0  0  0
 50 51  1  0  0  0  0
 52 83  1  0  0  0  0
 53 54  1  0  0  0  0
 53 55  1  0  0  0  0
 53 56  1  0  0  0  0
 57 58  1  0  0  0  0
 57 59  1  0  0  0  0
 57 60  1  0  0  0  0
 61 62  1  0  0  0  0
 61 63  1  0  0  0  0
 61 64  1  0  0  0  0
 65 66  1  0  0  0  0
 65 67  1  0  0  0  0
 65 68  1  0  0  0  0
 69 87  1  0  0  0  0
 70 71  1  0  0  0  0
 70 74  1  0  0  0  0
 72 73  1  0  0  0  0
 72 76  2  0  0  0  0
 74 75  1  0  0  0  0
 76 77  1  0  0  0  0
 78 91  1  0  0  0  0
 79 80  1  0  0  0  0
 79 81  1  0  0  0  0
 79 82  1  0  0  0  0
 83 84  1  0  0  0  0
 83 85  1  0  0  0  0
 83 86  1  0  0  0  0
 87 88  1  0  0  0  0
 87 89  1  0  0  0  0
 87 90  1  0  0  0  0
 91 92  1  0  0  0  0
 91 93  1  0  0  0  0
 91 94  1  0  0  0  0
M  CHG  1   4   1
M  CHG  1   5   1
M  END
>  <IDNUMBER>
AE-562/43459779

>  <NAME>
Chondocurarine, derivative of

>  <ADD_INFO>
http://www.specs.net/enter.php?specsid=AE-562/43459779

>  <H_ACCEPTORS>
0

>  <H_DONORS>
0

>  <ROTATABLE_BONDS>
4

>  <LOGP>
9.5

>  <LOGS>
-13.19

>  <TPSA>
55.380001

>  <PRICE>
N07

>  <SALTDATA>
2 I-

$$$$
AE-641/00005033
  MOE2011           3D

 86 91  0  0  1  0  0  0  0  0999 V2000
   -1.4390   -1.0760    0.1630 C   0  0  3  0  0  0  0  0  0  0  0  0
    0.1440   -0.7130    0.3310 C   0  0  3  0  0  0  0  0  0  0  0  0
    2.2840    0.0450   -1.1840 C   0  0  3  0  0  0  0  0  0  0  0  0
   -5.9650    1.2180    0.1290 C   0  0  3  0  0  0  0  0  0  0  0  0
   -2.2150    0.2140   -0.2930 C   0  0  3  0  0  0  0  0  0  0  0  0
   -4.4140   -0.7480    0.8180 C   0  0  3  0  0  0  0  0  0  0  0  0
   -3.7620    0.0470   -0.3730 C   0  0  3  0  0  0  0  0  0  0  0  0
    0.7030   -0.1480   -1.0330 C   0  0  3  0  0  0  0  0  0  0  0  0
   -4.5920    1.3810   -0.5880 C   0  0  3  0  0  0  0  0  0  0  0  0
    3.0920   -1.1780   -0.5680 C   0  0  3  0  0  0  0  0  0  0  0  0
    4.6630   -0.9480   -0.4050 C   0  0  0  0  0  0  0  0  0  0  0  0
   -5.7590    1.1830    1.5530 O   0  0  0  0  0  0  0  0  0  0  0  0
   -6.5570   -0.1480   -0.2360 C   0  0  0  0  0  0  0  0  0  0  0  0
    4.9370    0.4470    0.2260 C   0  0  3  0  0  0  0  0  0  0  0  0
   -5.7650   -1.3140    0.3070 C   0  0  0  0  0  0  0  0  0  0  0  0
   -6.3340   -1.7840    1.1170 H   0  0  0  0  0  0  0  0  0  0  0  0
   -5.6120   -2.0400   -0.4980 H   0  0  0  0  0  0  0  0  0  0  0  0
    0.9730   -1.9690    0.6670 C   0  0  0  0  0  0  0  0  0  0  0  0
    0.6510   -2.3970    1.6230 H   0  0  0  0  0  0  0  0  0  0  0  0
    0.8210   -2.7490   -0.0880 H   0  0  0  0  0  0  0  0  0  0  0  0
   -2.0810   -1.5460    1.5000 C   0  0  0  0  0  0  0  0  0  0  0  0
   -1.5550   -2.4240    1.8900 H   0  0  0  0  0  0  0  0  0  0  0  0
   -2.0040   -0.7680    2.2660 H   0  0  0  0  0  0  0  0  0  0  0  0
   -1.6240    0.7230   -1.6220 C   0  0  0  0  0  0  0  0  0  0  0  0
   -1.7580   -0.0240   -2.4120 H   0  0  0  0  0  0  0  0  0  0  0  0
   -2.1490    1.6090   -1.9880 H   0  0  0  0  0  0  0  0  0  0  0  0
    2.7550    1.4070   -0.6160 C   0  0  0  0  0  0  0  0  0  0  0  0
    2.3510    2.2280   -1.2220 H   0  0  0  0  0  0  0  0  0  0  0  0
    2.3670    1.5710    0.3870 H   0  0  0  0  0  0  0  0  0  0  0  0
   -0.1390    1.0680   -1.4890 C   0  0  0  0  0  0  0  0  0  0  0  0
   -0.0210    1.9050   -0.7920 H   0  0  0  0  0  0  0  0  0  0  0  0
    0.1890    1.4390   -2.4630 H   0  0  0  0  0  0  0  0  0  0  0  0
    2.4710   -1.6990    0.7490 C   0  0  0  0  0  0  0  0  0  0  0  0
    2.9240   -2.6630    1.0070 H   0  0  0  0  0  0  0  0  0  0  0  0
    2.7060   -1.0290    1.5800 H   0  0  0  0  0  0  0  0  0  0  0  0
   -4.7530    0.2420    1.9550 C   0  0  0  0  0  0  0  0  0  0  0  0
   -3.8700    0.7980    2.2870 H   0  0  0  0  0  0  0  0  0  0  0  0
   -5.1470   -0.2810    2.8340 H   0  0  0  0  0  0  0  0  0  0  0  0
    6.3680    0.6940    0.2330 O   0  0  0  0  0  0  0  0  0  0  0  0
   -3.5590   -1.9040    1.3580 C   0  0  0  0  0  0  0  0  0  0  0  0
   -3.9380   -2.2230    2.3370 H   0  0  0  0  0  0  0  0  0  0  0  0
   -3.6650   -2.7880    0.7190 H   0  0  0  0  0  0  0  0  0  0  0  0
    7.0280    1.3750    1.1990 C   0  0  0  0  0  0  0  0  0  0  0  0
    4.2660    1.5820   -0.5440 C   0  0  0  0  0  0  0  0  0  0  0  0
    4.4890    2.5380   -0.0560 H   0  0  0  0  0  0  0  0  0  0  0  0
    4.6980    1.6860   -1.5450 H   0  0  0  0  0  0  0  0  0  0  0  0
   -7.5670   -0.3100   -0.9150 O   0  0  0  0  0  0  0  0  0  0  0  0
    8.2320    1.6000    1.1030 O   0  0  0  0  0  0  0  0  0  0  0  0
   -1.6360   -2.2380   -0.8650 C   0  0  0  0  0  0  0  0  0  0  0  0
   -2.6810   -2.3650   -1.1580 H   0  0  0  0  0  0  0  0  0  0  0  0
   -1.3120   -3.1950   -0.4430 H   0  0  0  0  0  0  0  0  0  0  0  0
   -1.0920   -2.0990   -1.8000 H   0  0  0  0  0  0  0  0  0  0  0  0
    0.3240    0.2910    1.5080 C   0  0  0  0  0  0  0  0  0  0  0  0
    1.3650    0.5330    1.7120 H   0  0  0  0  0  0  0  0  0  0  0  0
   -0.0410   -0.1280    2.4510 H   0  0  0  0  0  0  0  0  0  0  0  0
   -0.1860    1.2420    1.3470 H   0  0  0  0  0  0  0  0  0  0  0  0
    2.5540    0.0750   -2.7260 C   0  0  0  0  0  0  0  0  0  0  0  0
    1.9390    0.8140   -3.2450 H   0  0  0  0  0  0  0  0  0  0  0  0
    2.3440   -0.8990   -3.1830 H   0  0  0  0  0  0  0  0  0  0  0  0
    3.5750    0.3470   -2.9800 H   0  0  0  0  0  0  0  0  0  0  0  0
   -6.9660    2.3310   -0.1680 C   0  0  0  0  0  0  0  0  0  0  0  0
   -7.1030    2.4710   -1.2450 H   0  0  0  0  0  0  0  0  0  0  0  0
   -6.6610    3.2820    0.2790 H   0  0  0  0  0  0  0  0  0  0  0  0
   -7.9460    2.0980    0.2670 H   0  0  0  0  0  0  0  0  0  0  0  0
   -3.9090    2.6810   -0.1180 C   0  0  0  0  0  0  0  0  0  0  0  0
   -2.9690    2.8790   -0.6330 H   0  0  0  0  0  0  0  0  0  0  0  0
   -3.6980    2.6770    0.9550 H   0  0  0  0  0  0  0  0  0  0  0  0
   -4.5410    3.5500   -0.3250 H   0  0  0  0  0  0  0  0  0  0  0  0
    5.4120   -1.1160   -1.7530 C   0  0  0  0  0  0  0  0  0  0  0  0
    5.0310   -1.9780   -2.3110 H   0  0  0  0  0  0  0  0  0  0  0  0
    6.4850   -1.2860   -1.5990 H   0  0  0  0  0  0  0  0  0  0  0  0
    5.3570   -0.2390   -2.3960 H   0  0  0  0  0  0  0  0  0  0  0  0
    5.3100   -2.0220    0.5190 C   0  0  0  0  0  0  0  0  0  0  0  0
    5.0790   -3.0330    0.1660 H   0  0  0  0  0  0  0  0  0  0  0  0
    4.9750   -1.9280    1.5570 H   0  0  0  0  0  0  0  0  0  0  0  0
    6.4020   -1.9290    0.5450 H   0  0  0  0  0  0  0  0  0  0  0  0
    6.2420    1.8210    2.3950 C   0  0  0  0  0  0  0  0  0  0  0  0
    5.4200    2.4760    2.1010 H   0  0  0  0  0  0  0  0  0  0  0  0
    6.8980    2.3990    3.0540 H   0  0  0  0  0  0  0  0  0  0  0  0
    5.8860    0.9550    2.9580 H   0  0  0  0  0  0  0  0  0  0  0  0
   -2.0420    0.9810    0.4690 H   0  0  0  0  0  0  0  0  0  0  0  0
   -3.9420   -0.5520   -1.2780 H   0  0  0  0  0  0  0  0  0  0  0  0
    0.4990   -0.9290   -1.7750 H   0  0  0  0  0  0  0  0  0  0  0  0
   -4.7660    1.4780   -1.6690 H   0  0  0  0  0  0  0  0  0  0  0  0
    2.9730   -2.0170   -1.2700 H   0  0  0  0  0  0  0  0  0  0  0  0
    4.5520    0.4370    1.2510 H   0  0  0  0  0  0  0  0  0  0  0  0
  1  2  1  0  0  0  0
  1  5  1  0  0  0  0
  1 21  1  0  0  0  0
  1 49  1  0  0  0  0
  2  8  1  0  0  0  0
  2 18  1  0  0  0  0
  2 53  1  0  0  0  0
  3  8  1  0  0  0  0
  3 10  1  0  0  0  0
  3 27  1  0  0  0  0
  3 57  1  0  0  0  0
  4  9  1  0  0  0  0
  4 12  1  0  0  0  0
  4 13  1  0  0  0  0
  4 61  1  0  0  0  0
  5  7  1  0  0  0  0
  5 24  1  0  0  0  0
  5 81  1  0  0  0  0
  6  7  1  0  0  0  0
  6 15  1  0  0  0  0
  6 36  1  0  0  0  0
  6 40  1  0  0  0  0
  7  9  1  0  0  0  0
  7 82  1  0  0  0  0
  8 30  1  0  0  0  0
  8 83  1  0  0  0  0
  9 65  1  0  0  0  0
  9 84  1  0  0  0  0
 10 11  1  0  0  0  0
 10 33  1  0  0  0  0
 10 85  1  0  0  0  0
 11 14  1  0  0  0  0
 11 69  1  0  0  0  0
 11 73  1  0  0  0  0
 12 36  1  0  0  0  0
 13 15  1  0  0  0  0
 13 47  2  0  0  0  0
 14 39  1  0  0  0  0
 14 44  1  0  0  0  0
 14 86  1  0  0  0  0
 15 16  1  0  0  0  0
 15 17  1  0  0  0  0
 18 19  1  0  0  0  0
 18 20  1  0  0  0  0
 18 33  1  0  0  0  0
 21 22  1  0  0  0  0
 21 23  1  0  0  0  0
 21 40  1  0  0  0  0
 24 25  1  0  0  0  0
 24 26  1  0  0  0  0
 24 30  1  0  0  0  0
 27 28  1  0  0  0  0
 27 29  1  0  0  0  0
 27 44  1  0  0  0  0
 30 31  1  0  0  0  0
 30 32  1  0  0  0  0
 33 34  1  0  0  0  0
 33 35  1  0  0  0  0
 36 37  1  0  0  0  0
 36 38  1  0  0  0  0
 39 43  1  0  0  0  0
 40 41  1  0  0  0  0
 40 42  1  0  0  0  0
 43 48  2  0  0  0  0
 43 77  1  0  0  0  0
 44 45  1  0  0  0  0
 44 46  1  0  0  0  0
 49 50  1  0  0  0  0
 49 51  1  0  0  0  0
 49 52  1  0  0  0  0
 53 54  1  0  0  0  0
 53 55  1  0  0  0  0
 53 56  1  0  0  0  0
 57 58  1  0  0  0  0
 57 59  1  0  0  0  0
 57 60  1  0  0  0  0
 61 62  1  0  0  0  0
 61 63  1  0  0  0  0
 61 64  1  0  0  0  0
 65 66  1  0  0  0  0
 65 67  1  0  0  0  0
 65 68  1  0  0  0  0
 69 70  1  0  0  0  0
 69 71  1  0  0  0  0
 69 72  1  0  0  0  0
 73 74  1  0  0  0  0
 73 75  1  0  0  0  0
 73 76  1  0  0  0  0
 77 78  1  0  0  0  0
 77 79  1  0  0  0  0
 77 80  1  0  0  0  0
M  END
>  <IDNUMBER>
AE-641/00005033

>  <NAME>
4,5,9,9,13,19,20-heptamethyl-24-oxo-21-oxahexacyclo[18.2.2.0~1,18~.0~4,17~.0~5,14~.0~8,13~]tetracos-10-yl acetate

>  <ADD_INFO>
http://www.specs.net/enter.php?specsid=AE-641/00005033

>  <H_ACCEPTORS>
4

>  <H_DONORS>
0

>  <ROTATABLE_BONDS>
2

>  <LOGP>
9.3599997

>  <LOGS>
-10.83

>  <TPSA>
52.599998

>  <PRICE>
N05

$$$$
AE-641/00404027
  MOE2011           3D

 92 96  0  0  1  0  0  0  0  0999 V2000
   -1.1340   -0.7670    1.2750 C   0  0  3  0  0  0  0  0  0  0  0  0
    0.4820   -0.7440    1.0700 C   0  0  3  0  0  0  0  0  0  0  0  0
   -3.3780   -0.3680    0.1200 C   0  0  0  0  0  0  0  0  0  0  0  0
    2.5480    0.6180    0.0180 C   0  0  3  0  0  0  0  0  0  0  0  0
   -1.8830   -0.5170   -0.0790 C   0  0  3  0  0  0  0  0  0  0  0  0
    0.9540    0.5100    0.2320 C   0  0  3  0  0  0  0  0  0  0  0  0
    3.2270   -0.8000   -0.1520 C   0  0  3  0  0  0  0  0  0  0  0  0
   -4.3600   -1.0110   -0.5420 C   0  0  0  0  0  0  0  0  0  0  0  0
    4.5030   -0.8570   -1.1060 C   0  0  0  0  0  0  0  0  0  0  0  0
   -3.9310    0.5230    1.2240 C   0  0  3  0  0  0  0  0  0  0  0  0
    5.2860    0.4820   -1.1000 C   0  0  3  0  0  0  0  0  0  0  0  0
    0.9700   -2.0280    0.3400 C   0  0  0  0  0  0  0  0  0  0  0  0
    1.1590   -2.8210    1.0770 H   0  0  0  0  0  0  0  0  0  0  0  0
    0.1860   -2.4280   -0.3130 H   0  0  0  0  0  0  0  0  0  0  0  0
   -1.3460    0.6830   -0.8570 C   0  0  0  0  0  0  0  0  0  0  0  0
   -1.8510    0.7500   -1.8290 H   0  0  0  0  0  0  0  0  0  0  0  0
   -1.5540    1.6240   -0.3440 H   0  0  0  0  0  0  0  0  0  0  0  0
   -1.6010    0.3240    2.3020 C   0  0  0  0  0  0  0  0  0  0  0  0
   -1.1450    0.1440    3.2820 H   0  0  0  0  0  0  0  0  0  0  0  0
   -1.2620    1.3160    1.9860 H   0  0  0  0  0  0  0  0  0  0  0  0
    2.9100    1.5140   -1.1960 C   0  0  0  0  0  0  0  0  0  0  0  0
    2.4640    1.1000   -2.1060 H   0  0  0  0  0  0  0  0  0  0  0  0
    2.4650    2.5110   -1.0750 H   0  0  0  0  0  0  0  0  0  0  0  0
    0.1530    0.6140   -1.0890 C   0  0  0  0  0  0  0  0  0  0  0  0
    0.4130    1.5360   -1.6190 H   0  0  0  0  0  0  0  0  0  0  0  0
    0.3740   -0.2120   -1.7680 H   0  0  0  0  0  0  0  0  0  0  0  0
    2.2090   -1.8880   -0.5450 C   0  0  0  0  0  0  0  0  0  0  0  0
    1.8610   -1.7070   -1.5680 H   0  0  0  0  0  0  0  0  0  0  0  0
    2.7000   -2.8680   -0.5780 H   0  0  0  0  0  0  0  0  0  0  0  0
   -5.7090   -0.6740    0.0290 C   0  0  0  0  0  0  0  0  0  0  0  0
   -6.2390    0.0340   -0.6160 H   0  0  0  0  0  0  0  0  0  0  0  0
   -6.3380   -1.5590    0.1690 H   0  0  0  0  0  0  0  0  0  0  0  0
    5.8760    0.6740    0.2060 O   0  0  0  0  0  0  0  0  0  0  0  0
    6.9990    1.4410    0.2710 C   0  0  0  0  0  0  0  0  0  0  0  0
   -4.8250    3.4390   -0.9820 C   0  0  0  0  0  0  0  0  0  0  0  0
   -3.1230    0.3640    2.5270 C   0  0  0  0  0  0  0  0  0  0  0  0
   -3.3580    1.1840    3.2190 H   0  0  0  0  0  0  0  0  0  0  0  0
   -3.4190   -0.5460    3.0620 H   0  0  0  0  0  0  0  0  0  0  0  0
   -5.3580   -0.0550    1.3790 C   0  0  0  0  0  0  0  0  0  0  0  0
   -5.3860   -0.8440    2.1430 H   0  0  0  0  0  0  0  0  0  0  0  0
   -6.0970    0.6960    1.6800 H   0  0  0  0  0  0  0  0  0  0  0  0
    4.4110    1.6880   -1.4710 C   0  0  0  0  0  0  0  0  0  0  0  0
    4.7670    2.5910   -0.9610 H   0  0  0  0  0  0  0  0  0  0  0  0
    4.5240    1.8900   -2.5450 H   0  0  0  0  0  0  0  0  0  0  0  0
   -4.0140    2.0300    0.8540 C   0  0  0  0  0  0  0  0  0  0  0  0
   -3.0200    2.4750    0.7880 H   0  0  0  0  0  0  0  0  0  0  0  0
   -4.5650    2.5610    1.6400 H   0  0  0  0  0  0  0  0  0  0  0  0
   -4.7230    2.2260   -0.3870 O   0  0  0  0  0  0  0  0  0  0  0  0
    7.5500    1.9900   -0.6720 O   0  0  0  0  0  0  0  0  0  0  0  0
   -5.4220    3.5780   -2.0460 O   0  0  0  0  0  0  0  0  0  0  0  0
   -4.2320   -1.9530   -1.7130 C   0  0  0  0  0  0  0  0  0  0  0  0
   -3.2170   -1.8910   -2.1220 H   0  0  0  0  0  0  0  0  0  0  0  0
   -1.5890   -2.1610    1.8260 C   0  0  0  0  0  0  0  0  0  0  0  0
   -2.6770   -2.2450    1.9110 H   0  0  0  0  0  0  0  0  0  0  0  0
   -1.1870   -2.3580    2.8230 H   0  0  0  0  0  0  0  0  0  0  0  0
   -1.2880   -2.9850    1.1740 H   0  0  0  0  0  0  0  0  0  0  0  0
    1.1470   -0.7480    2.4760 C   0  0  0  0  0  0  0  0  0  0  0  0
    2.1930   -1.0580    2.4460 H   0  0  0  0  0  0  0  0  0  0  0  0
    0.6730   -1.4580    3.1580 H   0  0  0  0  0  0  0  0  0  0  0  0
    1.0980    0.2390    2.9480 H   0  0  0  0  0  0  0  0  0  0  0  0
    3.1190    1.3620    1.2750 C   0  0  0  0  0  0  0  0  0  0  0  0
    2.4390    2.1520    1.6130 H   0  0  0  0  0  0  0  0  0  0  0  0
    4.0630    1.8740    1.0890 H   0  0  0  0  0  0  0  0  0  0  0  0
    3.3020    0.6980    2.1210 H   0  0  0  0  0  0  0  0  0  0  0  0
    5.4450   -1.9840   -0.5980 C   0  0  0  0  0  0  0  0  0  0  0  0
    4.9750   -2.9700   -0.6800 H   0  0  0  0  0  0  0  0  0  0  0  0
    5.7240   -1.8420    0.4510 H   0  0  0  0  0  0  0  0  0  0  0  0
    6.3710   -2.0140   -1.1840 H   0  0  0  0  0  0  0  0  0  0  0  0
    4.1720   -1.2130   -2.5800 C   0  0  0  0  0  0  0  0  0  0  0  0
    3.8050   -2.2400   -2.6790 H   0  0  0  0  0  0  0  0  0  0  0  0
    5.0700   -1.1480   -3.2070 H   0  0  0  0  0  0  0  0  0  0  0  0
    3.4240   -0.5510   -3.0210 H   0  0  0  0  0  0  0  0  0  0  0  0
    7.4670    1.5270    1.6910 C   0  0  0  0  0  0  0  0  0  0  0  0
    6.7000    2.0050    2.3050 H   0  0  0  0  0  0  0  0  0  0  0  0
    8.3780    2.1310    1.7370 H   0  0  0  0  0  0  0  0  0  0  0  0
    7.6940    0.5270    2.0670 H   0  0  0  0  0  0  0  0  0  0  0  0
   -4.1760    4.5980   -0.2860 C   0  0  0  0  0  0  0  0  0  0  0  0
   -3.0900    4.4780   -0.2770 H   0  0  0  0  0  0  0  0  0  0  0  0
   -4.5740    4.7140    0.7240 H   0  0  0  0  0  0  0  0  0  0  0  0
   -4.4070    5.5160   -0.8360 H   0  0  0  0  0  0  0  0  0  0  0  0
   -5.1770   -1.5760   -2.8560 C   0  0  0  0  0  0  0  0  0  0  0  0
   -6.2280   -1.6960   -2.5720 H   0  0  0  0  0  0  0  0  0  0  0  0
   -4.9960   -2.2120   -3.7290 H   0  0  0  0  0  0  0  0  0  0  0  0
   -5.0240   -0.5360   -3.1640 H   0  0  0  0  0  0  0  0  0  0  0  0
   -4.4590   -3.4010   -1.2780 C   0  0  0  0  0  0  0  0  0  0  0  0
   -5.4800   -3.5620   -0.9130 H   0  0  0  0  0  0  0  0  0  0  0  0
   -3.7660   -3.6840   -0.4780 H   0  0  0  0  0  0  0  0  0  0  0  0
   -4.2950   -4.0850   -2.1180 H   0  0  0  0  0  0  0  0  0  0  0  0
   -1.7050   -1.3980   -0.7060 H   0  0  0  0  0  0  0  0  0  0  0  0
    0.6560    1.4020    0.8000 H   0  0  0  0  0  0  0  0  0  0  0  0
    3.5930   -1.0880    0.8410 H   0  0  0  0  0  0  0  0  0  0  0  0
    6.1080    0.4100   -1.8260 H   0  0  0  0  0  0  0  0  0  0  0  0
  1  2  1  0  0  0  0
  1  5  1  0  0  0  0
  1 18  1  0  0  0  0
  1 53  1  0  0  0  0
  2  6  1  0  0  0  0
  2 12  1  0  0  0  0
  2 57  1  0  0  0  0
  3  5  1  0  0  0  0
  3  8  2  0  0  0  0
  3 10  1  0  0  0  0
  4  6  1  0  0  0  0
  4  7  1  0  0  0  0
  4 21  1  0  0  0  0
  4 61  1  0  0  0  0
  5 15  1  0  0  0  0
  5 89  1  0  0  0  0
  6 24  1  0  0  0  0
  6 90  1  0  0  0  0
  7  9  1  0  0  0  0
  7 27  1  0  0  0  0
  7 91  1  0  0  0  0
  8 30  1  0  0  0  0
  8 51  1  0  0  0  0
  9 11  1  0  0  0  0
  9 65  1  0  0  0  0
  9 69  1  0  0  0  0
 10 36  1  0  0  0  0
 10 39  1  0  0  0  0
 10 45  1  0  0  0  0
 11 33  1  0  0  0  0
 11 42  1  0  0  0  0
 11 92  1  0  0  0  0
 12 13  1  0  0  0  0
 12 14  1  0  0  0  0
 12 27  1  0  0  0  0
 15 16  1  0  0  0  0
 15 17  1  0  0  0  0
 15 24  1  0  0  0  0
 18 19  1  0  0  0  0
 18 20  1  0  0  0  0
 18 36  1  0  0  0  0
 21 22  1  0  0  0  0
 21 23  1  0  0  0  0
 21 42  1  0  0  0  0
 24 25  1  0  0  0  0
 24 26  1  0  0  0  0
 27 28  1  0  0  0  0
 27 29  1  0  0  0  0
 30 31  1  0  0  0  0
 30 32  1  0  0  0  0
 30 39  1  0  0  0  0
 33 34  1  0  0  0  0
 34 49  2  0  0  0  0
 34 73  1  0  0  0  0
 35 48  1  0  0  0  0
 35 50  2  0  0  0  0
 35 77  1  0  0  0  0
 36 37  1  0  0  0  0
 36 38  1  0  0  0  0
 39 40  1  0  0  0  0
 39 41  1  0  0  0  0
 42 43  1  0  0  0  0
 42 44  1  0  0  0  0
 45 46  1  0  0  0  0
 45 47  1  0  0  0  0
 45 48  1  0  0  0  0
 51 52  1  0  0  0  0
 51 81  1  0  0  0  0
 51 85  1  0  0  0  0
 53 54  1  0  0  0  0
 53 55  1  0  0  0  0
 53 56  1  0  0  0  0
 57 58  1  0  0  0  0
 57 59  1  0  0  0  0
 57 60  1  0  0  0  0
 61 62  1  0  0  0  0
 61 63  1  0  0  0  0
 61 64  1  0  0  0  0
 65 66  1  0  0  0  0
 65 67  1  0  0  0  0
 65 68  1  0  0  0  0
 69 70  1  0  0  0  0
 69 71  1  0  0  0  0
 69 72  1  0  0  0  0
 73 74  1  0  0  0  0
 73 75  1  0  0  0  0
 73 76  1  0  0  0  0
 77 78  1  0  0  0  0
 77 79  1  0  0  0  0
 77 80  1  0  0  0  0
 81 82  1  0  0  0  0
 81 83  1  0  0  0  0
 81 84  1  0  0  0  0
 85 86  1  0  0  0  0
 85 87  1  0  0  0  0
 85 88  1  0  0  0  0
M  END
>  <IDNUMBER>
AE-641/00404027

>  <NAME>
3a-[(acetyloxy)methyl]-1-isopropyl-5a,5b,8,8,11a-pentamethyl-3,3a,4,5,5a,5b,6,7,7a,8,9,10,11,11a,11b,12,13,13a-octadecahydro-2H-cyclopenta[a]chrysen-9-yl acetate

>  <ADD_INFO>
http://www.specs.net/enter.php?specsid=AE-641/00404027

>  <H_ACCEPTORS>
4

>  <H_DONORS>
0

>  <ROTATABLE_BONDS>
6

>  <LOGP>
9.8299999

>  <LOGS>
-11.43

>  <TPSA>
52.599998

>  <PRICE>
N05

$$$$
AE-641/01100050
  MOE2011           3D

 28 29  0  0  0  0  0  0  0  0999 V2000
   -1.2440    0.3570   -0.1830 C   0  0  0  0  0  0  0  0  0  0  0  0
   -0.1620    1.2520   -0.3170 C   0  0  0  0  0  0  0  0  0  0  0  0
   -0.3300    2.3200   -0.4260 H   0  0  0  0  0  0  0  0  0  0  0  0
   -0.9570   -1.0200   -0.0570 C   0  0  0  0  0  0  0  0  0  0  0  0
    1.1570    0.7900   -0.3080 C   0  0  0  0  0  0  0  0  0  0  0  0
    1.4440   -0.5750   -0.2100 C   0  0  0  0  0  0  0  0  0  0  0  0
    0.3790   -1.4700   -0.0750 C   0  0  0  0  0  0  0  0  0  0  0  0
    0.5640   -2.5370    0.0160 H   0  0  0  0  0  0  0  0  0  0  0  0
   -2.6040    0.7420   -0.1660 C   0  0  0  0  0  0  0  0  0  0  0  0
   -3.6250   -0.1420   -0.0330 N   0  0  0  0  0  0  0  0  0  0  0  0
   -3.3080   -1.4460    0.0860 C   0  0  0  0  0  0  0  0  0  0  0  0
   -4.1540   -2.1190    0.1900 H   0  0  0  0  0  0  0  0  0  0  0  0
    2.1470    1.7280   -0.4750 O   0  0  0  0  0  0  0  0  0  0  0  0
    2.7670   -0.9250   -0.2610 O   0  0  0  0  0  0  0  0  0  0  0  0
   -2.0120   -1.9270    0.0800 C   0  0  0  0  0  0  0  0  0  0  0  0
   -1.8360   -2.9940    0.1790 H   0  0  0  0  0  0  0  0  0  0  0  0
   -3.0190    2.1800   -0.2920 C   0  0  0  0  0  0  0  0  0  0  0  0
   -2.6100    2.7690    0.5350 H   0  0  0  0  0  0  0  0  0  0  0  0
   -4.1100    2.2750   -0.2610 H   0  0  0  0  0  0  0  0  0  0  0  0
   -2.6760    2.5960   -1.2440 H   0  0  0  0  0  0  0  0  0  0  0  0
    3.0820   -2.3110   -0.2230 C   0  0  0  0  0  0  0  0  0  0  0  0
    4.1690   -2.4090   -0.2980 H   0  0  0  0  0  0  0  0  0  0  0  0
    2.6410   -2.8400   -1.0730 H   0  0  0  0  0  0  0  0  0  0  0  0
    2.7730   -2.7580    0.7280 H   0  0  0  0  0  0  0  0  0  0  0  0
    2.7510    2.0390    0.7810 C   0  0  0  0  0  0  0  0  0  0  0  0
    3.4560    2.8600    0.6180 H   0  0  0  0  0  0  0  0  0  0  0  0
    3.3120    1.1880    1.1800 H   0  0  0  0  0  0  0  0  0  0  0  0
    2.0040    2.3760    1.5090 H   0  0  0  0  0  0  0  0  0  0  0  0
  1  2  1  0  0  0  0
  1  4  1  0  0  0  0
  1  9  2  0  0  0  0
  2  3  1  0  0  0  0
  2  5  2  0  0  0  0
  4  7  1  0  0  0  0
  4 15  2  0  0  0  0
  5  6  1  0  0  0  0
  5 13  1  0  0  0  0
  6  7  2  0  0  0  0
  6 14  1  0  0  0  0
  7  8  1  0  0  0  0
  9 10  1  0  0  0  0
  9 17  1  0  0  0  0
 10 11  2  0  0  0  0
 11 12  1  0  0  0  0
 11 15  1  0  0  0  0
 13 25  1  0  0  0  0
 14 21  1  0  0  0  0
 15 16  1  0  0  0  0
 17 18  1  0  0  0  0
 17 19  1  0  0  0  0
 17 20  1  0  0  0  0
 21 22  1  0  0  0  0
 21 23  1  0  0  0  0
 21 24  1  0  0  0  0
 25 26  1  0  0  0  0
 25 27  1  0  0  0  0
 25 28  1  0  0  0  0
M  END
>  <IDNUMBER>
AE-641/01100050

>  <NAME>
Isosalsolidine

>  <ADD_INFO>
http://www.specs.net/enter.php?specsid=AE-641/01100050

>  <H_ACCEPTORS>
1

>  <H_DONORS>
0

>  <ROTATABLE_BONDS>
2

>  <LOGP>
2.3299999

>  <LOGS>
-2.6800001

>  <TPSA>
31.35

>  <PRICE>
N07

$$$$
AE-641/02529057
  MOE2011           3D

 37 39  0  0  1  0  0  0  0  0999 V2000
    4.0300   -0.4050    0.2720 C   0  0  0  0  0  0  0  0  0  0  0  0
    3.2480    0.8330   -0.0060 C   0  0  0  0  0  0  0  0  0  0  0  0
    1.8760    0.3890   -0.3570 C   0  0  3  0  0  0  0  0  0  0  0  0
    3.1340   -1.4420    0.3390 O   0  0  0  0  0  0  0  0  0  0  0  0
    1.8300   -0.8750    0.4620 C   0  0  3  0  0  0  0  0  0  0  0  0
   -0.6310   -1.0090   -0.2780 C   0  0  3  0  0  0  0  0  0  0  0  0
   -0.5850    0.4290    0.3650 C   0  0  3  0  0  0  0  0  0  0  0  0
    0.6550    1.2610   -0.0820 C   0  0  0  0  0  0  0  0  0  0  0  0
    0.8780    2.0020    0.6970 H   0  0  0  0  0  0  0  0  0  0  0  0
    0.4350    1.8300   -0.9940 H   0  0  0  0  0  0  0  0  0  0  0  0
    0.7160   -1.7850   -0.0420 C   0  0  0  0  0  0  0  0  0  0  0  0
    1.0410   -2.2940   -0.9600 H   0  0  0  0  0  0  0  0  0  0  0  0
    0.6000   -2.5940    0.6880 H   0  0  0  0  0  0  0  0  0  0  0  0
   -1.9180    1.1680    0.2460 C   0  0  0  0  0  0  0  0  0  0  0  0
    5.2370   -0.4930    0.3870 O   0  0  0  0  0  0  0  0  0  0  0  0
    3.7640    2.0610    0.0900 C   0  0  0  0  0  0  0  0  0  0  0  0
    4.8030    2.2140    0.3690 H   0  0  0  0  0  0  0  0  0  0  0  0
    3.1660    2.9430   -0.1160 H   0  0  0  0  0  0  0  0  0  0  0  0
   -2.0470    2.4990    0.1110 C   0  0  0  0  0  0  0  0  0  0  0  0
   -1.1980    3.1720    0.0760 H   0  0  0  0  0  0  0  0  0  0  0  0
   -3.0270    2.9620    0.0400 H   0  0  0  0  0  0  0  0  0  0  0  0
   -1.8080   -1.8410    0.3290 C   0  0  0  0  0  0  0  0  0  0  0  0
   -2.2730   -2.4540   -0.4540 H   0  0  0  0  0  0  0  0  0  0  0  0
   -1.4440   -2.5580    1.0740 H   0  0  0  0  0  0  0  0  0  0  0  0
   -0.8590   -0.9090   -1.8110 C   0  0  0  0  0  0  0  0  0  0  0  0
   -0.8670   -1.9060   -2.2700 H   0  0  0  0  0  0  0  0  0  0  0  0
   -0.0750   -0.3330   -2.3100 H   0  0  0  0  0  0  0  0  0  0  0  0
   -1.8130   -0.4370   -2.0610 H   0  0  0  0  0  0  0  0  0  0  0  0
   -3.1640    0.3130    0.3230 C   0  0  0  0  0  0  0  0  0  0  0  0
   -3.9550    0.8420    0.8680 H   0  0  0  0  0  0  0  0  0  0  0  0
   -3.5420    0.1260   -0.6890 H   0  0  0  0  0  0  0  0  0  0  0  0
   -2.8980   -1.0140    1.0180 C   0  0  0  0  0  0  0  0  0  0  0  0
   -3.8220   -1.6010    1.0660 H   0  0  0  0  0  0  0  0  0  0  0  0
   -2.6010   -0.8250    2.0580 H   0  0  0  0  0  0  0  0  0  0  0  0
    1.9030    0.1390   -1.4270 H   0  0  0  0  0  0  0  0  0  0  0  0
    1.6680   -0.6730    1.5320 H   0  0  0  0  0  0  0  0  0  0  0  0
   -0.4550    0.2690    1.4480 H   0  0  0  0  0  0  0  0  0  0  0  0
  1  2  1  0  0  0  0
  1  4  1  0  0  0  0
  1 15  2  0  0  0  0
  2  3  1  0  0  0  0
  2 16  2  0  0  0  0
  3  5  1  0  0  0  0
  3  8  1  0  0  0  0
  3 35  1  0  0  0  0
  4  5  1  0  0  0  0
  5 11  1  0  0  0  0
  5 36  1  0  0  0  0
  6  7  1  0  0  0  0
  6 11  1  0  0  0  0
  6 22  1  0  0  0  0
  6 25  1  0  0  0  0
  7  8  1  0  0  0  0
  7 14  1  0  0  0  0
  7 37  1  0  0  0  0
  8  9  1  0  0  0  0
  8 10  1  0  0  0  0
 11 12  1  0  0  0  0
 11 13  1  0  0  0  0
 14 19  2  0  0  0  0
 14 29  1  0  0  0  0
 16 17  1  0  0  0  0
 16 18  1  0  0  0  0
 19 20  1  0  0  0  0
 19 21  1  0  0  0  0
 22 23  1  0  0  0  0
 22 24  1  0  0  0  0
 22 32  1  0  0  0  0
 25 26  1  0  0  0  0
 25 27  1  0  0  0  0
 25 28  1  0  0  0  0
 29 30  1  0  0  0  0
 29 31  1  0  0  0  0
 29 32  1  0  0  0  0
 32 33  1  0  0  0  0
 32 34  1  0  0  0  0
M  END
>  <IDNUMBER>
AE-641/02529057

>  <NAME>
Isoalantolactone/Isohelenin

>  <ADD_INFO>
http://www.specs.net/enter.php?specsid=AE-641/02529057

>  <H_ACCEPTORS>
2

>  <H_DONORS>
0

>  <ROTATABLE_BONDS>
0

>  <LOGP>
3.4200001

>  <LOGS>
-3.8199999

>  <TPSA>
26.299999

>  <PRICE>
N07

$$$$
AE-641/03276024
  MOE2011           3D

 56 59  0  0  1  0  0  0  0  0999 V2000
    1.1320   -0.3700   -0.3660 C   0  0  3  0  0  0  0  0  0  0  0  0
   -3.2560    0.2320    0.7390 C   0  0  3  0  0  0  0  0  0  0  0  0
    1.7310    0.9620    0.0910 C   0  0  0  0  0  0  0  0  0  0  0  0
   -0.4470   -0.4220   -0.2100 C   0  0  3  0  0  0  0  0  0  0  0  0
   -2.6430    0.9230   -0.5090 C   0  0  3  0  0  0  0  0  0  0  0  0
   -1.1000    0.9280   -0.6040 C   0  0  3  0  0  0  0  0  0  0  0  0
    0.9760    2.0410    0.3580 C   0  0  0  0  0  0  0  0  0  0  0  0
    1.4480    2.9630    0.6910 H   0  0  0  0  0  0  0  0  0  0  0  0
   -4.6240   -0.1780    0.1910 C   0  0  0  0  0  0  0  0  0  0  0  0
   -2.4960   -1.0330    1.1570 C   0  0  0  0  0  0  0  0  0  0  0  0
   -2.8280   -1.3630    2.1510 H   0  0  0  0  0  0  0  0  0  0  0  0
   -2.7430   -1.8640    0.4810 H   0  0  0  0  0  0  0  0  0  0  0  0
   -0.5080    2.0970    0.2060 C   0  0  0  0  0  0  0  0  0  0  0  0
   -0.9350    2.1570    1.2080 H   0  0  0  0  0  0  0  0  0  0  0  0
   -0.7710    3.0360   -0.2970 H   0  0  0  0  0  0  0  0  0  0  0  0
   -0.9760   -0.8660    1.1690 C   0  0  0  0  0  0  0  0  0  0  0  0
   -0.5650   -1.8450    1.4400 H   0  0  0  0  0  0  0  0  0  0  0  0
   -0.6730   -0.1640    1.9540 H   0  0  0  0  0  0  0  0  0  0  0  0
    1.8080   -1.5350    0.4180 C   0  0  0  0  0  0  0  0  0  0  0  0
    1.5080   -1.5030    1.4730 H   0  0  0  0  0  0  0  0  0  0  0  0
    1.4710   -2.5010    0.0210 H   0  0  0  0  0  0  0  0  0  0  0  0
   -3.2820    0.1830   -1.6970 C   0  0  0  0  0  0  0  0  0  0  0  0
   -3.1890    0.7490   -2.6290 H   0  0  0  0  0  0  0  0  0  0  0  0
   -2.8180   -0.7970   -1.8580 H   0  0  0  0  0  0  0  0  0  0  0  0
    3.2390    1.0460    0.2080 C   0  0  0  0  0  0  0  0  0  0  0  0
    3.5500    1.9640    0.7230 H   0  0  0  0  0  0  0  0  0  0  0  0
    3.6630    1.1320   -0.7960 H   0  0  0  0  0  0  0  0  0  0  0  0
    6.2480   -0.0420    0.1940 C   0  0  0  0  0  0  0  0  0  0  0  0
   -5.5560   -0.6290    0.9710 N   0  0  0  0  0  0  0  0  0  0  0  0
   -4.7380    0.0020   -1.3000 C   0  0  0  0  0  0  0  0  0  0  0  0
   -5.1870   -0.8650   -1.7900 H   0  0  0  0  0  0  0  0  0  0  0  0
   -5.3270    0.9010   -1.5050 H   0  0  0  0  0  0  0  0  0  0  0  0
    5.2670   -0.0520    1.1200 O   0  0  0  0  0  0  0  0  0  0  0  0
    3.8270   -0.1530    0.9540 C   0  0  3  0  0  0  0  0  0  0  0  0
    7.3700    0.3700    0.4800 O   0  0  0  0  0  0  0  0  0  0  0  0
    3.3390   -1.4960    0.4160 C   0  0  0  0  0  0  0  0  0  0  0  0
    3.7030   -1.6950   -0.5930 H   0  0  0  0  0  0  0  0  0  0  0  0
    3.7370   -2.3070    1.0380 H   0  0  0  0  0  0  0  0  0  0  0  0
    1.4540   -0.5340   -1.8780 C   0  0  0  0  0  0  0  0  0  0  0  0
    1.0700   -1.4880   -2.2570 H   0  0  0  0  0  0  0  0  0  0  0  0
    2.5280   -0.5160   -2.0860 H   0  0  0  0  0  0  0  0  0  0  0  0
    1.0090    0.2660   -2.4800 H   0  0  0  0  0  0  0  0  0  0  0  0
   -3.4410    1.1880    1.9230 C   0  0  0  0  0  0  0  0  0  0  0  0
   -2.4930    1.4520    2.3950 H   0  0  0  0  0  0  0  0  0  0  0  0
   -4.0650    0.7370    2.7040 H   0  0  0  0  0  0  0  0  0  0  0  0
   -3.9410    2.1130    1.6130 H   0  0  0  0  0  0  0  0  0  0  0  0
   -6.7150   -0.9180    0.2470 O   0  0  0  0  0  0  0  0  0  0  0  0
   -7.3160   -1.2340    0.9450 H   0  0  0  0  0  0  0  0  0  0  0  0
    5.9660   -0.6170   -1.1570 C   0  0  0  0  0  0  0  0  0  0  0  0
    5.1060   -0.1500   -1.6330 H   0  0  0  0  0  0  0  0  0  0  0  0
    5.8490   -1.7000   -1.0820 H   0  0  0  0  0  0  0  0  0  0  0  0
    6.8270   -0.4230   -1.8050 H   0  0  0  0  0  0  0  0  0  0  0  0
   -0.8010   -1.1860   -0.9170 H   0  0  0  0  0  0  0  0  0  0  0  0
   -3.0000    1.9630   -0.5610 H   0  0  0  0  0  0  0  0  0  0  0  0
   -0.8510    1.1270   -1.6560 H   0  0  0  0  0  0  0  0  0  0  0  0
    3.4570   -0.0850    1.9870 H   0  0  0  0  0  0  0  0  0  0  0  0
  1  3  1  0  0  0  0
  1  4  1  0  0  0  0
  1 19  1  0  0  0  0
  1 39  1  0  0  0  0
  2  5  1  0  0  0  0
  2  9  1  0  0  0  0
  2 10  1  0  0  0  0
  2 43  1  0  0  0  0
  3  7  2  0  0  0  0
  3 25  1  0  0  0  0
  4  6  1  0  0  0  0
  4 16  1  0  0  0  0
  4 53  1  0  0  0  0
  5  6  1  0  0  0  0
  5 22  1  0  0  0  0
  5 54  1  0  0  0  0
  6 13  1  0  0  0  0
  6 55  1  0  0  0  0
  7  8  1  0  0  0  0
  7 13  1  0  0  0  0
  9 29  2  0  0  0  0
  9 30  1  0  0  0  0
 10 11  1  0  0  0  0
 10 12  1  0  0  0  0
 10 16  1  0  0  0  0
 13 14  1  0  0  0  0
 13 15  1  0  0  0  0
 16 17  1  0  0  0  0
 16 18  1  0  0  0  0
 19 20  1  0  0  0  0
 19 21  1  0  0  0  0
 19 36  1  0  0  0  0
 22 23  1  0  0  0  0
 22 24  1  0  0  0  0
 22 30  1  0  0  0  0
 25 26  1  0  0  0  0
 25 27  1  0  0  0  0
 25 34  1  0  0  0  0
 28 33  1  0  0  0  0
 28 35  2  0  0  0  0
 28 49  1  0  0  0  0
 29 47  1  0  0  0  0
 30 31  1  0  0  0  0
 30 32  1  0  0  0  0
 33 34  1  0  0  0  0
 34 36  1  0  0  0  0
 34 56  1  0  0  0  0
 36 37  1  0  0  0  0
 36 38  1  0  0  0  0
 39 40  1  0  0  0  0
 39 41  1  0  0  0  0
 39 42  1  0  0  0  0
 43 44  1  0  0  0  0
 43 45  1  0  0  0  0
 43 46  1  0  0  0  0
 47 48  1  0  0  0  0
 49 50  1  0  0  0  0
 49 51  1  0  0  0  0
 49 52  1  0  0  0  0
M  END
>  <IDNUMBER>
AE-641/03276024

>  <NAME>
3-Hydroxyandrost-5-en-17-one, derivative of

>  <ADD_INFO>
http://www.specs.net/enter.php?specsid=AE-641/03276024

>  <H_ACCEPTORS>
2

>  <H_DONORS>
1

>  <ROTATABLE_BONDS>
2

>  <LOGP>
3.77

>  <LOGS>
-4.9400001

>  <TPSA>
58.889999

>  <PRICE>
N05

$$$$
AE-641/05088017
  MOE2011           3D

 19 20  0  0  0  0  0  0  0  0999 V2000
    0.5780   -0.7360   -0.0180 C   0  0  0  0  0  0  0  0  0  0  0  0
    1.8520   -1.3390   -0.0270 O   0  0  0  0  0  0  0  0  0  0  0  0
   -0.5300   -1.5820   -0.0250 C   0  0  0  0  0  0  0  0  0  0  0  0
   -0.4080   -2.6600   -0.0280 H   0  0  0  0  0  0  0  0  0  0  0  0
    0.4450    0.6540    0.0070 C   0  0  0  0  0  0  0  0  0  0  0  0
    3.0120   -0.5750   -0.0130 C   0  0  0  0  0  0  0  0  0  0  0  0
    1.6450    1.4740    0.0210 C   0  0  0  0  0  0  0  0  0  0  0  0
    1.5480    2.5540    0.0380 H   0  0  0  0  0  0  0  0  0  0  0  0
   -1.7940   -1.0100   -0.0030 C   0  0  0  0  0  0  0  0  0  0  0  0
   -1.9460    0.3760   -0.0100 C   0  0  0  0  0  0  0  0  0  0  0  0
    2.8470    0.8890    0.0110 C   0  0  0  0  0  0  0  0  0  0  0  0
    3.7600    1.4720    0.0210 H   0  0  0  0  0  0  0  0  0  0  0  0
   -0.8350    1.2150    0.0110 C   0  0  0  0  0  0  0  0  0  0  0  0
   -0.9770    2.2920    0.0150 H   0  0  0  0  0  0  0  0  0  0  0  0
    4.1280   -1.0810   -0.0200 O   0  0  0  0  0  0  0  0  0  0  0  0
   -2.8830   -1.8310    0.0520 O   0  0  0  0  0  0  0  0  0  0  0  0
   -3.5190   -1.4140    0.6610 H   0  0  0  0  0  0  0  0  0  0  0  0
   -3.1870    0.9410   -0.0670 O   0  0  0  0  0  0  0  0  0  0  0  0
   -3.7350    0.3620   -0.6270 H   0  0  0  0  0  0  0  0  0  0  0  0
  1  2  1  0  0  0  0
  1  3  2  0  0  0  0
  1  5  1  0  0  0  0
  2  6  1  0  0  0  0
  3  4  1  0  0  0  0
  3  9  1  0  0  0  0
  5  7  1  0  0  0  0
  5 13  2  0  0  0  0
  6 11  1  0  0  0  0
  6 15  2  0  0  0  0
  7  8  1  0  0  0  0
  7 11  2  0  0  0  0
  9 10  2  0  0  0  0
  9 16  1  0  0  0  0
 10 13  1  0  0  0  0
 10 18  1  0  0  0  0
 11 12  1  0  0  0  0
 13 14  1  0  0  0  0
 16 17  1  0  0  0  0
 18 19  1  0  0  0  0
M  END
>  <IDNUMBER>
AE-641/05088017

>  <NAME>
Aesculetin (Cichorigenin; Esculetol)

>  <ADD_INFO>
http://www.specs.net/enter.php?specsid=AE-641/05088017

>  <H_ACCEPTORS>
1

>  <H_DONORS>
2

>  <ROTATABLE_BONDS>
0

>  <LOGP>
0.55000001

>  <LOGS>
-0.38999999

>  <TPSA>
66.760002

>  <PRICE>
N07

$$$$
AE-641/05533037
  MOE2011           3D

 38 40  0  0  0  0  0  0  0  0999 V2000
   -1.3020   -1.0870    0.5140 C   0  0  0  0  0  0  0  0  0  0  0  0
   -2.6420   -0.7770    0.2640 C   0  0  0  0  0  0  0  0  0  0  0  0
   -2.0730    1.5840    0.4370 C   0  0  0  0  0  0  0  0  0  0  0  0
   -0.3030   -0.1150    0.7090 C   0  0  0  0  0  0  0  0  0  0  0  0
   -0.7510    1.2120    0.6830 C   0  0  0  0  0  0  0  0  0  0  0  0
   -3.0270    0.5740    0.1890 C   0  0  0  0  0  0  0  0  0  0  0  0
   -0.8920   -2.4460    0.5740 O   0  0  0  0  0  0  0  0  0  0  0  0
   -3.5890   -1.8730    0.0860 C   0  0  0  0  0  0  0  0  0  0  0  0
   -4.6330   -1.6390   -0.0940 H   0  0  0  0  0  0  0  0  0  0  0  0
   -1.7750   -3.5000    0.4010 C   0  0  0  0  0  0  0  0  0  0  0  0
   -3.1790   -3.1430    0.1510 C   0  0  0  0  0  0  0  0  0  0  0  0
   -3.8680   -3.9690    0.0230 H   0  0  0  0  0  0  0  0  0  0  0  0
    0.0040    2.3310    0.8970 O   0  0  0  0  0  0  0  0  0  0  0  0
   -2.1010    3.0040    0.5170 C   0  0  0  0  0  0  0  0  0  0  0  0
   -2.9580    3.6490    0.3900 H   0  0  0  0  0  0  0  0  0  0  0  0
   -0.8170    3.4050    0.7950 C   0  0  0  0  0  0  0  0  0  0  0  0
   -0.3490    4.3670    0.9470 H   0  0  0  0  0  0  0  0  0  0  0  0
   -1.4220   -4.6720    0.4530 O   0  0  0  0  0  0  0  0  0  0  0  0
    4.3040   -0.3810   -0.1710 C   0  0  0  0  0  0  0  0  0  0  0  0
    0.9780   -0.5790    0.9470 O   0  0  0  0  0  0  0  0  0  0  0  0
    3.3190   -0.4090    0.7470 C   0  0  0  0  0  0  0  0  0  0  0  0
    3.4290   -1.0790    1.6000 H   0  0  0  0  0  0  0  0  0  0  0  0
   -4.3510    0.8940   -0.0380 O   0  0  0  0  0  0  0  0  0  0  0  0
    2.0330    0.3660    0.7620 C   0  0  0  0  0  0  0  0  0  0  0  0
    1.8850    0.9200   -0.1690 H   0  0  0  0  0  0  0  0  0  0  0  0
    2.0580    1.0560    1.6130 H   0  0  0  0  0  0  0  0  0  0  0  0
    4.3290    0.4880   -1.3990 C   0  0  0  0  0  0  0  0  0  0  0  0
    4.2980   -0.1340   -2.3000 H   0  0  0  0  0  0  0  0  0  0  0  0
    5.2510    1.0790   -1.4220 H   0  0  0  0  0  0  0  0  0  0  0  0
    3.4990    1.1940   -1.4530 H   0  0  0  0  0  0  0  0  0  0  0  0
    5.5130   -1.2670   -0.0210 C   0  0  0  0  0  0  0  0  0  0  0  0
    5.6070   -1.9290   -0.8890 H   0  0  0  0  0  0  0  0  0  0  0  0
    5.4600   -1.8980    0.8720 H   0  0  0  0  0  0  0  0  0  0  0  0
    6.4220   -0.6610    0.0540 H   0  0  0  0  0  0  0  0  0  0  0  0
   -4.5340    1.2810   -1.4010 C   0  0  0  0  0  0  0  0  0  0  0  0
   -5.6080    1.4020   -1.5720 H   0  0  0  0  0  0  0  0  0  0  0  0
   -4.1670    0.5110   -2.0890 H   0  0  0  0  0  0  0  0  0  0  0  0
   -4.0490    2.2400   -1.6090 H   0  0  0  0  0  0  0  0  0  0  0  0
  1  2  1  0  0  0  0
  1  4  2  0  0  0  0
  1  7  1  0  0  0  0
  2  6  2  0  0  0  0
  2  8  1  0  0  0  0
  3  5  2  0  0  0  0
  3  6  1  0  0  0  0
  3 14  1  0  0  0  0
  4  5  1  0  0  0  0
  4 20  1  0  0  0  0
  5 13  1  0  0  0  0
  6 23  1  0  0  0  0
  7 10  1  0  0  0  0
  8  9  1  0  0  0  0
  8 11  2  0  0  0  0
 10 11  1  0  0  0  0
 10 18  2  0  0  0  0
 11 12  1  0  0  0  0
 13 16  1  0  0  0  0
 14 15  1  0  0  0  0
 14 16  2  0  0  0  0
 16 17  1  0  0  0  0
 19 21  2  0  0  0  0
 19 27  1  0  0  0  0
 19 31  1  0  0  0  0
 20 24  1  0  0  0  0
 21 22  1  0  0  0  0
 21 24  1  0  0  0  0
 23 35  1  0  0  0  0
 24 25  1  0  0  0  0
 24 26  1  0  0  0  0
 27 28  1  0  0  0  0
 27 29  1  0  0  0  0
 27 30  1  0  0  0  0
 31 32  1  0  0  0  0
 31 33  1  0  0  0  0
 31 34  1  0  0  0  0
 35 36  1  0  0  0  0
 35 37  1  0  0  0  0
 35 38  1  0  0  0  0
M  END
>  <IDNUMBER>
AE-641/05533037

>  <NAME>
Phellopterin

>  <ADD_INFO>
http://www.specs.net/enter.php?specsid=AE-641/05533037

>  <H_ACCEPTORS>
1

>  <H_DONORS>
0

>  <ROTATABLE_BONDS>
4

>  <LOGP>
4.0300002

>  <LOGS>
-4.8299999

>  <TPSA>
57.900002

>  <PRICE>
N07

$$$$
AE-641/05534033
  MOE2011           3D

 75 79  0  0  1  0  0  0  0  0999 V2000
   -4.0510   -1.0980    0.0430 C   0  0  2  0  0  0  0  0  0  0  0  0
   -3.0580   -2.0950    0.2970 O   0  0  0  0  0  0  0  0  0  0  0  0
   -3.1110   -1.5640   -1.0420 C   0  0  2  0  0  0  0  0  0  0  0  0
   -3.8320    0.2370    0.7390 C   0  0  1  0  0  0  0  0  0  0  0  0
    0.6330    0.8040    0.0810 C   0  0  1  0  0  0  0  0  0  0  0  0
   -1.8110    0.6060   -0.8890 C   0  0  3  0  0  0  0  0  0  0  0  0
   -2.3630    0.7920    0.5600 C   0  0  3  0  0  0  0  0  0  0  0  0
   -0.4200    1.2540   -0.9670 C   0  0  3  0  0  0  0  0  0  0  0  0
   -1.8850   -0.8200   -1.4380 C   0  0  0  0  0  0  0  0  0  0  0  0
   -1.0250   -1.4290   -1.1720 H   0  0  0  0  0  0  0  0  0  0  0  0
   -1.8630   -0.7630   -2.5340 H   0  0  0  0  0  0  0  0  0  0  0  0
    1.7800    1.7830   -0.3270 C   0  0  2  0  0  0  0  0  0  0  0  0
   -5.4600   -1.6250    0.0070 C   0  0  0  0  0  0  0  0  0  0  0  0
   -5.5220   -2.5710   -0.5460 H   0  0  0  0  0  0  0  0  0  0  0  0
   -5.8080   -1.8670    1.0190 H   0  0  0  0  0  0  0  0  0  0  0  0
    0.0400    1.0330    1.4750 C   0  0  0  0  0  0  0  0  0  0  0  0
    0.7230    0.6670    2.2510 H   0  0  0  0  0  0  0  0  0  0  0  0
   -0.0860    2.1080    1.6580 H   0  0  0  0  0  0  0  0  0  0  0  0
   -4.8260    1.2560    0.0850 C   0  0  0  0  0  0  0  0  0  0  0  0
   -4.7940    2.2110    0.6230 H   0  0  0  0  0  0  0  0  0  0  0  0
   -4.5190    1.4690   -0.9460 H   0  0  0  0  0  0  0  0  0  0  0  0
   -1.3330    0.3470    1.6350 C   0  0  0  0  0  0  0  0  0  0  0  0
   -1.6930    0.6150    2.6340 H   0  0  0  0  0  0  0  0  0  0  0  0
   -1.2220   -0.7420    1.6300 H   0  0  0  0  0  0  0  0  0  0  0  0
    0.3500    1.2610   -2.2830 C   0  0  0  0  0  0  0  0  0  0  0  0
    0.3650    0.2760   -2.7600 H   0  0  0  0  0  0  0  0  0  0  0  0
   -0.0810    1.9690   -2.9990 H   0  0  0  0  0  0  0  0  0  0  0  0
    1.7820    1.6760   -1.8760 C   0  0  0  0  0  0  0  0  0  0  0  0
    2.0510    2.6380   -2.3250 H   0  0  0  0  0  0  0  0  0  0  0  0
    2.4800    0.9300   -2.2590 H   0  0  0  0  0  0  0  0  0  0  0  0
    3.1250    1.6670    0.4530 C   0  0  3  0  0  0  0  0  0  0  0  0
   -6.3890   -0.6020   -0.6450 C   0  0  2  0  0  0  0  0  0  0  0  0
   -4.1810    0.1100    2.2420 C   0  0  0  0  0  0  0  0  0  0  0  0
   -4.0060    1.0550    2.7680 H   0  0  0  0  0  0  0  0  0  0  0  0
   -3.5880   -0.6740    2.7250 H   0  0  0  0  0  0  0  0  0  0  0  0
   -5.2270   -0.1610    2.4130 H   0  0  0  0  0  0  0  0  0  0  0  0
   -6.2770    0.7650    0.0300 C   0  0  0  0  0  0  0  0  0  0  0  0
   -6.8890    1.4930   -0.5190 H   0  0  0  0  0  0  0  0  0  0  0  0
   -6.7160    0.7280    1.0340 H   0  0  0  0  0  0  0  0  0  0  0  0
    1.1080   -0.6640   -0.0300 C   0  0  0  0  0  0  0  0  0  0  0  0
    1.9690   -0.8560    0.6160 H   0  0  0  0  0  0  0  0  0  0  0  0
    1.3990   -0.9410   -1.0470 H   0  0  0  0  0  0  0  0  0  0  0  0
    0.3520   -1.3780    0.3000 H   0  0  0  0  0  0  0  0  0  0  0  0
   -7.7300   -1.0720   -0.5540 O   0  0  0  0  0  0  0  0  0  0  0  0
   -8.3030   -0.4100   -0.9780 H   0  0  0  0  0  0  0  0  0  0  0  0
    4.6650   -0.0030   -0.8020 C   0  0  0  0  0  0  0  0  0  0  0  0
    3.7700   -0.4460   -1.2410 H   0  0  0  0  0  0  0  0  0  0  0  0
    5.4330   -0.0020   -1.5850 H   0  0  0  0  0  0  0  0  0  0  0  0
    4.3960    1.4540   -0.3990 C   0  0  0  0  0  0  0  0  0  0  0  0
    4.3480    2.0790   -1.2990 H   0  0  0  0  0  0  0  0  0  0  0  0
    5.2760    1.8110    0.1520 H   0  0  0  0  0  0  0  0  0  0  0  0
    3.3200    2.9440    1.2960 C   0  0  0  0  0  0  0  0  0  0  0  0
    4.2090    2.8600    1.9310 H   0  0  0  0  0  0  0  0  0  0  0  0
    2.4630    3.1120    1.9580 H   0  0  0  0  0  0  0  0  0  0  0  0
    3.4420    3.8260    0.6580 H   0  0  0  0  0  0  0  0  0  0  0  0
    5.1620   -0.8640    0.3670 C   0  0  0  0  0  0  0  0  0  0  0  0
    4.3990   -0.9130    1.1530 H   0  0  0  0  0  0  0  0  0  0  0  0
    6.0380   -0.3750    0.8120 H   0  0  0  0  0  0  0  0  0  0  0  0
    5.5520   -2.2940   -0.0530 C   0  0  0  0  0  0  0  0  0  0  0  0
    6.2910   -2.2350   -0.8620 H   0  0  0  0  0  0  0  0  0  0  0  0
    4.3520   -3.1010   -0.5550 C   0  0  0  0  0  0  0  0  0  0  0  0
    3.5580   -3.1420    0.1980 H   0  0  0  0  0  0  0  0  0  0  0  0
    4.6480   -4.1290   -0.7890 H   0  0  0  0  0  0  0  0  0  0  0  0
    3.9340   -2.6700   -1.4690 H   0  0  0  0  0  0  0  0  0  0  0  0
    6.2050   -3.0230    1.1250 C   0  0  0  0  0  0  0  0  0  0  0  0
    5.5140   -3.1110    1.9710 H   0  0  0  0  0  0  0  0  0  0  0  0
    7.0950   -2.4850    1.4690 H   0  0  0  0  0  0  0  0  0  0  0  0
    6.5170   -4.0320    0.8360 H   0  0  0  0  0  0  0  0  0  0  0  0
   -3.4600   -2.2370   -1.8150 H   0  0  0  0  0  0  0  0  0  0  0  0
   -2.4550    1.2030   -1.5490 H   0  0  0  0  0  0  0  0  0  0  0  0
   -2.4440    1.8800    0.7150 H   0  0  0  0  0  0  0  0  0  0  0  0
   -0.6300    2.3200   -0.7650 H   0  0  0  0  0  0  0  0  0  0  0  0
    1.4020    2.7990   -0.1240 H   0  0  0  0  0  0  0  0  0  0  0  0
    3.0520    0.8630    1.1900 H   0  0  0  0  0  0  0  0  0  0  0  0
   -6.1370   -0.5080   -1.7080 H   0  0  0  0  0  0  0  0  0  0  0  0
  1  2  1  0  0  0  0
  1  3  1  0  0  0  0
  1  4  1  0  0  0  0
  1 13  1  0  0  0  0
  2  3  1  0  0  0  0
  3  9  1  0  0  0  0
  3 69  1  0  0  0  0
  4  7  1  0  0  0  0
  4 19  1  0  0  0  0
  4 33  1  0  0  0  0
  5  8  1  0  0  0  0
  5 12  1  0  0  0  0
  5 16  1  0  0  0  0
  5 40  1  0  0  0  0
  6  7  1  0  0  0  0
  6  8  1  0  0  0  0
  6  9  1  0  0  0  0
  6 70  1  0  0  0  0
  7 22  1  0  0  0  0
  7 71  1  0  0  0  0
  8 25  1  0  0  0  0
  8 72  1  0  0  0  0
  9 10  1  0  0  0  0
  9 11  1  0  0  0  0
 12 28  1  0  0  0  0
 12 31  1  0  0  0  0
 12 73  1  0  0  0  0
 13 14  1  0  0  0  0
 13 15  1  0  0  0  0
 13 32  1  0  0  0  0
 16 17  1  0  0  0  0
 16 18  1  0  0  0  0
 16 22  1  0  0  0  0
 19 20  1  0  0  0  0
 19 21  1  0  0  0  0
 19 37  1  0  0  0  0
 22 23  1  0  0  0  0
 22 24  1  0  0  0  0
 25 26  1  0  0  0  0
 25 27  1  0  0  0  0
 25 28  1  0  0  0  0
 28 29  1  0  0  0  0
 28 30  1  0  0  0  0
 31 49  1  0  0  0  0
 31 52  1  0  0  0  0
 31 74  1  0  0  0  0
 32 37  1  0  0  0  0
 32 44  1  0  0  0  0
 32 75  1  0  0  0  0
 33 34  1  0  0  0  0
 33 35  1  0  0  0  0
 33 36  1  0  0  0  0
 37 38  1  0  0  0  0
 37 39  1  0  0  0  0
 40 41  1  0  0  0  0
 40 42  1  0  0  0  0
 40 43  1  0  0  0  0
 44 45  1  0  0  0  0
 46 47  1  0  0  0  0
 46 48  1  0  0  0  0
 46 49  1  0  0  0  0
 46 56  1  0  0  0  0
 49 50  1  0  0  0  0
 49 51  1  0  0  0  0
 52 53  1  0  0  0  0
 52 54  1  0  0  0  0
 52 55  1  0  0  0  0
 56 57  1  0  0  0  0
 56 58  1  0  0  0  0
 56 59  1  0  0  0  0
 59 60  1  0  0  0  0
 59 61  1  0  0  0  0
 59 65  1  0  0  0  0
 61 62  1  0  0  0  0
 61 63  1  0  0  0  0
 61 64  1  0  0  0  0
 65 66  1  0  0  0  0
 65 67  1  0  0  0  0
 65 68  1  0  0  0  0
M  END
>  <IDNUMBER>
AE-641/05534033

>  <NAME>
Cholestan-3-ol, 5,6-epoxy derivative of

>  <ADD_INFO>
http://www.specs.net/enter.php?specsid=AE-641/05534033

>  <H_ACCEPTORS>
2

>  <H_DONORS>
1

>  <ROTATABLE_BONDS>
5

>  <LOGP>
7.3400002

>  <LOGS>
-7.9000001

>  <TPSA>
32.759998

>  <PRICE>
N05

$$$$
AE-641/05534034
  MOE2011           3D

 78 81  0  0  1  0  0  0  0  0999 V2000
    3.5050    0.7910   -0.0960 C   0  0  1  0  0  0  0  0  0  0  0  0
    4.7290   -0.1850    0.1200 C   0  0  1  0  0  0  0  0  0  0  0  0
   -0.5180   -1.2340   -0.6600 C   0  0  1  0  0  0  0  0  0  0  0  0
    2.0970   -1.2910   -0.7420 C   0  0  3  0  0  0  0  0  0  0  0  0
    2.1800   -0.0270    0.1580 C   0  0  3  0  0  0  0  0  0  0  0  0
    0.7920   -2.0880   -0.5090 C   0  0  3  0  0  0  0  0  0  0  0  0
    3.3410   -2.1900   -0.6040 C   0  0  0  0  0  0  0  0  0  0  0  0
    3.2740   -3.0000   -1.3420 H   0  0  0  0  0  0  0  0  0  0  0  0
    3.3500   -2.6630    0.3850 H   0  0  0  0  0  0  0  0  0  0  0  0
   -1.3320   -1.5090    0.6630 C   0  0  2  0  0  0  0  0  0  0  0  0
    4.6620   -1.4300   -0.7990 C   0  0  1  0  0  0  0  0  0  0  0  0
   -0.1760    0.2600   -0.8650 C   0  0  0  0  0  0  0  0  0  0  0  0
    0.1860    0.4150   -1.8910 H   0  0  0  0  0  0  0  0  0  0  0  0
   -1.0690    0.8840   -0.7810 H   0  0  0  0  0  0  0  0  0  0  0  0
    6.0740    0.5510   -0.0210 C   0  0  0  0  0  0  0  0  0  0  0  0
    6.9010   -0.1330    0.2150 H   0  0  0  0  0  0  0  0  0  0  0  0
    6.2520    0.8730   -1.0530 H   0  0  0  0  0  0  0  0  0  0  0  0
    0.8820    0.8090    0.0910 C   0  0  0  0  0  0  0  0  0  0  0  0
    0.4580    0.8730    1.1010 H   0  0  0  0  0  0  0  0  0  0  0  0
    1.0760    1.8470   -0.1950 H   0  0  0  0  0  0  0  0  0  0  0  0
    3.6340    1.9730    0.9160 C   0  0  0  0  0  0  0  0  0  0  0  0
    2.8470    2.7170    0.7480 H   0  0  0  0  0  0  0  0  0  0  0  0
    3.4830    1.6190    1.9420 H   0  0  0  0  0  0  0  0  0  0  0  0
    0.6930   -2.7750    0.8560 C   0  0  0  0  0  0  0  0  0  0  0  0
    1.1670   -3.7620    0.8520 H   0  0  0  0  0  0  0  0  0  0  0  0
    1.1620   -2.1880    1.6510 H   0  0  0  0  0  0  0  0  0  0  0  0
   -0.7950   -2.8770    1.1140 C   0  0  0  0  0  0  0  0  0  0  0  0
   -0.9800   -3.0760    2.1740 H   0  0  0  0  0  0  0  0  0  0  0  0
   -1.2370   -3.6900    0.5250 H   0  0  0  0  0  0  0  0  0  0  0  0
    4.6940   -0.7360    1.4590 O   0  0  0  0  0  0  0  0  0  0  0  0
    4.6380   -0.0270    2.1160 H   0  0  0  0  0  0  0  0  0  0  0  0
   -2.8950   -1.4660    0.6180 C   0  0  3  0  0  0  0  0  0  0  0  0
    6.1810    1.7520    0.9230 C   0  0  2  0  0  0  0  0  0  0  0  0
    3.4770    1.4170   -1.5210 C   0  0  0  0  0  0  0  0  0  0  0  0
    2.7390    2.2240   -1.5870 H   0  0  0  0  0  0  0  0  0  0  0  0
    3.2180    0.7020   -2.3030 H   0  0  0  0  0  0  0  0  0  0  0  0
    4.4370    1.8580   -1.8030 H   0  0  0  0  0  0  0  0  0  0  0  0
    4.8410   -1.0980   -2.1720 O   0  0  0  0  0  0  0  0  0  0  0  0
    4.8240   -1.9280   -2.6790 H   0  0  0  0  0  0  0  0  0  0  0  0
    4.9830    2.6930    0.8240 C   0  0  0  0  0  0  0  0  0  0  0  0
    5.0480    3.4460    1.6200 H   0  0  0  0  0  0  0  0  0  0  0  0
    5.0420    3.2690   -0.1090 H   0  0  0  0  0  0  0  0  0  0  0  0
   -1.2630   -1.7370   -1.9180 C   0  0  0  0  0  0  0  0  0  0  0  0
   -2.1560   -1.1460   -2.1360 H   0  0  0  0  0  0  0  0  0  0  0  0
   -1.5700   -2.7840   -1.8110 H   0  0  0  0  0  0  0  0  0  0  0  0
   -0.6180   -1.6760   -2.8020 H   0  0  0  0  0  0  0  0  0  0  0  0
    7.3740    2.4670    0.6130 O   0  0  0  0  0  0  0  0  0  0  0  0
    7.4350    3.2200    1.2250 H   0  0  0  0  0  0  0  0  0  0  0  0
   -4.9570    0.0630    0.2300 C   0  0  0  0  0  0  0  0  0  0  0  0
   -5.3710   -0.7390   -0.3920 H   0  0  0  0  0  0  0  0  0  0  0  0
   -5.3590   -0.0540    1.2410 H   0  0  0  0  0  0  0  0  0  0  0  0
   -3.4260   -0.0540    0.2700 C   0  0  0  0  0  0  0  0  0  0  0  0
   -3.0290    0.6760    0.9870 H   0  0  0  0  0  0  0  0  0  0  0  0
   -3.0580    0.2350   -0.7160 H   0  0  0  0  0  0  0  0  0  0  0  0
   -3.4930   -1.9470    1.9530 C   0  0  0  0  0  0  0  0  0  0  0  0
   -4.5860   -1.9720    1.9200 H   0  0  0  0  0  0  0  0  0  0  0  0
   -3.1890   -1.2940    2.7790 H   0  0  0  0  0  0  0  0  0  0  0  0
   -3.1850   -2.9690    2.1900 H   0  0  0  0  0  0  0  0  0  0  0  0
   -5.3940    1.4230   -0.3290 C   0  0  0  0  0  0  0  0  0  0  0  0
   -4.9280    1.5630   -1.3130 H   0  0  0  0  0  0  0  0  0  0  0  0
   -5.0100    2.2230    0.3180 H   0  0  0  0  0  0  0  0  0  0  0  0
   -6.9210    1.5610   -0.4800 C   0  0  0  0  0  0  0  0  0  0  0  0
   -7.2910    0.7300   -1.0940 H   0  0  0  0  0  0  0  0  0  0  0  0
   -7.2530    2.8650   -1.2100 C   0  0  0  0  0  0  0  0  0  0  0  0
   -6.9040    3.7360   -0.6450 H   0  0  0  0  0  0  0  0  0  0  0  0
   -8.3340    2.9650   -1.3550 H   0  0  0  0  0  0  0  0  0  0  0  0
   -6.7820    2.8890   -2.1980 H   0  0  0  0  0  0  0  0  0  0  0  0
   -7.6490    1.5230    0.8650 C   0  0  0  0  0  0  0  0  0  0  0  0
   -7.2710    2.2960    1.5430 H   0  0  0  0  0  0  0  0  0  0  0  0
   -7.5330    0.5520    1.3550 H   0  0  0  0  0  0  0  0  0  0  0  0
   -8.7240    1.6890    0.7290 H   0  0  0  0  0  0  0  0  0  0  0  0
    2.0630   -0.9720   -1.7910 H   0  0  0  0  0  0  0  0  0  0  0  0
    2.2400   -0.3730    1.1990 H   0  0  0  0  0  0  0  0  0  0  0  0
    0.7770   -2.8940   -1.2580 H   0  0  0  0  0  0  0  0  0  0  0  0
   -1.0150   -0.7820    1.4230 H   0  0  0  0  0  0  0  0  0  0  0  0
    5.4780   -2.1150   -0.5330 H   0  0  0  0  0  0  0  0  0  0  0  0
   -3.2470   -2.1640   -0.1520 H   0  0  0  0  0  0  0  0  0  0  0  0
    6.2810    1.3970    1.9560 H   0  0  0  0  0  0  0  0  0  0  0  0
  1  2  1  0  0  0  0
  1  5  1  0  0  0  0
  1 21  1  0  0  0  0
  1 34  1  0  0  0  0
  2 11  1  0  0  0  0
  2 15  1  0  0  0  0
  2 30  1  0  0  0  0
  3  6  1  0  0  0  0
  3 10  1  0  0  0  0
  3 12  1  0  0  0  0
  3 43  1  0  0  0  0
  4  5  1  0  0  0  0
  4  6  1  0  0  0  0
  4  7  1  0  0  0  0
  4 72  1  0  0  0  0
  5 18  1  0  0  0  0
  5 73  1  0  0  0  0
  6 24  1  0  0  0  0
  6 74  1  0  0  0  0
  7  8  1  0  0  0  0
  7  9  1  0  0  0  0
  7 11  1  0  0  0  0
 10 27  1  0  0  0  0
 10 32  1  0  0  0  0
 10 75  1  0  0  0  0
 11 38  1  0  0  0  0
 11 76  1  0  0  0  0
 12 13  1  0  0  0  0
 12 14  1  0  0  0  0
 12 18  1  0  0  0  0
 15 16  1  0  0  0  0
 15 17  1  0  0  0  0
 15 33  1  0  0  0  0
 18 19  1  0  0  0  0
 18 20  1  0  0  0  0
 21 22  1  0  0  0  0
 21 23  1  0  0  0  0
 21 40  1  0  0  0  0
 24 25  1  0  0  0  0
 24 26  1  0  0  0  0
 24 27  1  0  0  0  0
 27 28  1  0  0  0  0
 27 29  1  0  0  0  0
 30 31  1  0  0  0  0
 32 52  1  0  0  0  0
 32 55  1  0  0  0  0
 32 77  1  0  0  0  0
 33 40  1  0  0  0  0
 33 47  1  0  0  0  0
 33 78  1  0  0  0  0
 34 35  1  0  0  0  0
 34 36  1  0  0  0  0
 34 37  1  0  0  0  0
 38 39  1  0  0  0  0
 40 41  1  0  0  0  0
 40 42  1  0  0  0  0
 43 44  1  0  0  0  0
 43 45  1  0  0  0  0
 43 46  1  0  0  0  0
 47 48  1  0  0  0  0
 49 50  1  0  0  0  0
 49 51  1  0  0  0  0
 49 52  1  0  0  0  0
 49 59  1  0  0  0  0
 52 53  1  0  0  0  0
 52 54  1  0  0  0  0
 55 56  1  0  0  0  0
 55 57  1  0  0  0  0
 55 58  1  0  0  0  0
 59 60  1  0  0  0  0
 59 61  1  0  0  0  0
 59 62  1  0  0  0  0
 62 63  1  0  0  0  0
 62 64  1  0  0  0  0
 62 68  1  0  0  0  0
 64 65  1  0  0  0  0
 64 66  1  0  0  0  0
 64 67  1  0  0  0  0
 68 69  1  0  0  0  0
 68 70  1  0  0  0  0
 68 71  1  0  0  0  0
M  END
>  <IDNUMBER>
AE-641/05534034

>  <NAME>
Cholestane-3,5,6-triol

>  <ADD_INFO>
http://www.specs.net/enter.php?specsid=AE-641/05534034

>  <H_ACCEPTORS>
3

>  <H_DONORS>
3

>  <ROTATABLE_BONDS>
5

>  <LOGP>
6.1900001

>  <LOGS>
-7.5500002

>  <TPSA>
60.689999

>  <PRICE>
N05

$$$$
AE-641/05534035
  MOE2011           3D

 88 91  0  0  1  0  0  0  0  0999 V2000
   -3.2440    0.0070    0.2200 C   0  0  1  0  0  0  0  0  0  0  0  0
   -2.5740   -0.3170   -1.1680 C   0  0  1  0  0  0  0  0  0  0  0  0
    1.6350    1.1500   -0.5200 C   0  0  1  0  0  0  0  0  0  0  0  0
   -0.8760    1.6550   -0.7920 C   0  0  3  0  0  0  0  0  0  0  0  0
   -1.0650    0.1420   -1.1830 C   0  0  3  0  0  0  0  0  0  0  0  0
    0.3830    1.8430    0.0750 C   0  0  3  0  0  0  0  0  0  0  0  0
   -2.9870    1.4710    0.7060 C   0  0  1  0  0  0  0  0  0  0  0  0
   -2.1090    2.3520   -0.1820 C   0  0  0  0  0  0  0  0  0  0  0  0
   -2.6940    2.8000   -0.9880 H   0  0  0  0  0  0  0  0  0  0  0  0
   -1.8140    3.2350    0.3980 H   0  0  0  0  0  0  0  0  0  0  0  0
    2.7300    1.6690    0.4670 C   0  0  2  0  0  0  0  0  0  0  0  0
    1.3970   -0.3720   -0.5020 C   0  0  0  0  0  0  0  0  0  0  0  0
    1.8280   -0.8370   -1.3980 H   0  0  0  0  0  0  0  0  0  0  0  0
    1.9100   -0.8360    0.3460 H   0  0  0  0  0  0  0  0  0  0  0  0
   -4.7180   -0.4510    0.2520 C   0  0  0  0  0  0  0  0  0  0  0  0
   -5.1390   -0.2830    1.2510 H   0  0  0  0  0  0  0  0  0  0  0  0
   -5.3420    0.1320   -0.4310 H   0  0  0  0  0  0  0  0  0  0  0  0
   -0.0850   -0.7790   -0.4110 C   0  0  0  0  0  0  0  0  0  0  0  0
   -0.3490   -0.8090    0.6490 H   0  0  0  0  0  0  0  0  0  0  0  0
   -0.1530   -1.8090   -0.7750 H   0  0  0  0  0  0  0  0  0  0  0  0
   -2.7360   -1.8440   -1.4700 C   0  0  0  0  0  0  0  0  0  0  0  0
   -2.3330   -2.0760   -2.4650 H   0  0  0  0  0  0  0  0  0  0  0  0
   -2.1610   -2.4610   -0.7750 H   0  0  0  0  0  0  0  0  0  0  0  0
    0.8410    3.2750    0.3340 C   0  0  0  0  0  0  0  0  0  0  0  0
    0.7050    3.9090   -0.5490 H   0  0  0  0  0  0  0  0  0  0  0  0
    0.2880    3.7390    1.1580 H   0  0  0  0  0  0  0  0  0  0  0  0
   -4.1620    2.1720    1.1940 O   0  0  0  0  0  0  0  0  0  0  0  0
    2.3280    3.1540    0.6790 C   0  0  0  0  0  0  0  0  0  0  0  0
    2.5130    3.4570    1.7150 H   0  0  0  0  0  0  0  0  0  0  0  0
    2.9030    3.8280    0.0330 H   0  0  0  0  0  0  0  0  0  0  0  0
   -5.0760    2.6970    0.3370 C   0  0  0  0  0  0  0  0  0  0  0  0
   -7.1130   -2.6160    0.7680 C   0  0  0  0  0  0  0  0  0  0  0  0
   -4.8820   -1.9420   -0.0860 C   0  0  1  0  0  0  0  0  0  0  0  0
   -6.2930   -2.2370   -0.2420 O   0  0  0  0  0  0  0  0  0  0  0  0
   -2.6210   -0.7810    1.2730 O   0  0  0  0  0  0  0  0  0  0  0  0
   -2.4570   -1.6900    0.9830 H   0  0  0  0  0  0  0  0  0  0  0  0
   -5.0550    2.6190   -0.8810 O   0  0  0  0  0  0  0  0  0  0  0  0
   -8.3220   -2.7370    0.5880 O   0  0  0  0  0  0  0  0  0  0  0  0
    4.2290    1.5290    0.0760 C   0  0  3  0  0  0  0  0  0  0  0  0
   -4.1950   -2.3130   -1.4030 C   0  0  0  0  0  0  0  0  0  0  0  0
   -4.2320   -3.4030   -1.5310 H   0  0  0  0  0  0  0  0  0  0  0  0
   -4.7670   -1.9160   -2.2500 H   0  0  0  0  0  0  0  0  0  0  0  0
   -3.2780    0.4000   -2.3670 C   0  0  0  0  0  0  0  0  0  0  0  0
   -2.9160   -0.0080   -3.3190 H   0  0  0  0  0  0  0  0  0  0  0  0
   -3.0860    1.4700   -2.4220 H   0  0  0  0  0  0  0  0  0  0  0  0
   -4.3630    0.2740   -2.3630 H   0  0  0  0  0  0  0  0  0  0  0  0
    1.9430    1.5940   -1.9730 C   0  0  0  0  0  0  0  0  0  0  0  0
    2.8600    1.1240   -2.3440 H   0  0  0  0  0  0  0  0  0  0  0  0
    2.0750    2.6760   -2.0610 H   0  0  0  0  0  0  0  0  0  0  0  0
    1.1510    1.3040   -2.6690 H   0  0  0  0  0  0  0  0  0  0  0  0
    4.7570   -0.8170    1.0650 C   0  0  0  0  0  0  0  0  0  0  0  0
    5.5300   -0.4610    1.7540 H   0  0  0  0  0  0  0  0  0  0  0  0
    3.8120   -0.7580    1.6160 H   0  0  0  0  0  0  0  0  0  0  0  0
   -6.1530    3.3900    1.1150 C   0  0  0  0  0  0  0  0  0  0  0  0
   -6.6600    2.6720    1.7640 H   0  0  0  0  0  0  0  0  0  0  0  0
   -6.8860    3.8110    0.4210 H   0  0  0  0  0  0  0  0  0  0  0  0
   -5.7210    4.2040    1.7020 H   0  0  0  0  0  0  0  0  0  0  0  0
   -6.4860   -2.9080    2.0970 C   0  0  0  0  0  0  0  0  0  0  0  0
   -5.8060   -3.7600    2.0160 H   0  0  0  0  0  0  0  0  0  0  0  0
   -7.2740   -3.1800    2.8070 H   0  0  0  0  0  0  0  0  0  0  0  0
   -5.9790   -2.0270    2.4940 H   0  0  0  0  0  0  0  0  0  0  0  0
    4.7010    0.0800   -0.1770 C   0  0  0  0  0  0  0  0  0  0  0  0
    4.0780   -0.3870   -0.9450 H   0  0  0  0  0  0  0  0  0  0  0  0
    5.7080    0.1320   -0.6120 H   0  0  0  0  0  0  0  0  0  0  0  0
    5.1410    2.2060    1.1140 C   0  0  0  0  0  0  0  0  0  0  0  0
    6.1960    2.0280    0.8810 H   0  0  0  0  0  0  0  0  0  0  0  0
    4.9450    1.8340    2.1250 H   0  0  0  0  0  0  0  0  0  0  0  0
    4.9950    3.2910    1.1230 H   0  0  0  0  0  0  0  0  0  0  0  0
    5.0100   -2.2930    0.7310 C   0  0  0  0  0  0  0  0  0  0  0  0
    4.1640   -2.6630    0.1370 H   0  0  0  0  0  0  0  0  0  0  0  0
    4.9940   -2.8610    1.6710 H   0  0  0  0  0  0  0  0  0  0  0  0
    6.3190   -2.5960   -0.0220 C   0  0  0  0  0  0  0  0  0  0  0  0
    6.3060   -2.0810   -0.9900 H   0  0  0  0  0  0  0  0  0  0  0  0
    6.4150   -4.0980   -0.3070 C   0  0  0  0  0  0  0  0  0  0  0  0
    6.4460   -4.6780    0.6220 H   0  0  0  0  0  0  0  0  0  0  0  0
    7.3200   -4.3280   -0.8800 H   0  0  0  0  0  0  0  0  0  0  0  0
    5.5550   -4.4390   -0.8930 H   0  0  0  0  0  0  0  0  0  0  0  0
    7.5570   -2.1370    0.7500 C   0  0  0  0  0  0  0  0  0  0  0  0
    7.5870   -2.5810    1.7510 H   0  0  0  0  0  0  0  0  0  0  0  0
    7.5780   -1.0490    0.8580 H   0  0  0  0  0  0  0  0  0  0  0  0
    8.4720   -2.4280    0.2240 H   0  0  0  0  0  0  0  0  0  0  0  0
   -0.6980    2.1970   -1.7320 H   0  0  0  0  0  0  0  0  0  0  0  0
   -0.7400    0.0570   -2.2310 H   0  0  0  0  0  0  0  0  0  0  0  0
    0.1740    1.4080    1.0660 H   0  0  0  0  0  0  0  0  0  0  0  0
   -2.3940    1.3860    1.6280 H   0  0  0  0  0  0  0  0  0  0  0  0
    2.5830    1.1640    1.4320 H   0  0  0  0  0  0  0  0  0  0  0  0
   -4.4520   -2.5660    0.7030 H   0  0  0  0  0  0  0  0  0  0  0  0
    4.3850    2.0730   -0.8650 H   0  0  0  0  0  0  0  0  0  0  0  0
  1  2  1  0  0  0  0
  1  7  1  0  0  0  0
  1 15  1  0  0  0  0
  1 35  1  0  0  0  0
  2  5  1  0  0  0  0
  2 21  1  0  0  0  0
  2 43  1  0  0  0  0
  3  6  1  0  0  0  0
  3 11  1  0  0  0  0
  3 12  1  0  0  0  0
  3 47  1  0  0  0  0
  4  5  1  0  0  0  0
  4  6  1  0  0  0  0
  4  8  1  0  0  0  0
  4 82  1  0  0  0  0
  5 18  1  0  0  0  0
  5 83  1  0  0  0  0
  6 24  1  0  0  0  0
  6 84  1  0  0  0  0
  7  8  1  0  0  0  0
  7 27  1  0  0  0  0
  7 85  1  0  0  0  0
  8  9  1  0  0  0  0
  8 10  1  0  0  0  0
 11 28  1  0  0  0  0
 11 39  1  0  0  0  0
 11 86  1  0  0  0  0
 12 13  1  0  0  0  0
 12 14  1  0  0  0  0
 12 18  1  0  0  0  0
 15 16  1  0  0  0  0
 15 17  1  0  0  0  0
 15 33  1  0  0  0  0
 18 19  1  0  0  0  0
 18 20  1  0  0  0  0
 21 22  1  0  0  0  0
 21 23  1  0  0  0  0
 21 40  1  0  0  0  0
 24 25  1  0  0  0  0
 24 26  1  0  0  0  0
 24 28  1  0  0  0  0
 27 31  1  0  0  0  0
 28 29  1  0  0  0  0
 28 30  1  0  0  0  0
 31 37  2  0  0  0  0
 31 54  1  0  0  0  0
 32 34  1  0  0  0  0
 32 38  2  0  0  0  0
 32 58  1  0  0  0  0
 33 34  1  0  0  0  0
 33 40  1  0  0  0  0
 33 87  1  0  0  0  0
 35 36  1  0  0  0  0
 39 62  1  0  0  0  0
 39 65  1  0  0  0  0
 39 88  1  0  0  0  0
 40 41  1  0  0  0  0
 40 42  1  0  0  0  0
 43 44  1  0  0  0  0
 43 45  1  0  0  0  0
 43 46  1  0  0  0  0
 47 48  1  0  0  0  0
 47 49  1  0  0  0  0
 47 50  1  0  0  0  0
 51 52  1  0  0  0  0
 51 53  1  0  0  0  0
 51 62  1  0  0  0  0
 51 69  1  0  0  0  0
 54 55  1  0  0  0  0
 54 56  1  0  0  0  0
 54 57  1  0  0  0  0
 58 59  1  0  0  0  0
 58 60  1  0  0  0  0
 58 61  1  0  0  0  0
 62 63  1  0  0  0  0
 62 64  1  0  0  0  0
 65 66  1  0  0  0  0
 65 67  1  0  0  0  0
 65 68  1  0  0  0  0
 69 70  1  0  0  0  0
 69 71  1  0  0  0  0
 69 72  1  0  0  0  0
 72 73  1  0  0  0  0
 72 74  1  0  0  0  0
 72 78  1  0  0  0  0
 74 75  1  0  0  0  0
 74 76  1  0  0  0  0
 74 77  1  0  0  0  0
 78 79  1  0  0  0  0
 78 80  1  0  0  0  0
 78 81  1  0  0  0  0
M  END
>  <IDNUMBER>
AE-641/05534035

>  <NAME>
Cholestane-3,5,6-triol, 3,6-diacetyl derivative of

>  <ADD_INFO>
http://www.specs.net/enter.php?specsid=AE-641/05534035

>  <H_ACCEPTORS>
5

>  <H_DONORS>
1

>  <ROTATABLE_BONDS>
9

>  <LOGP>
7.79

>  <LOGS>
-9.0200005

>  <TPSA>
72.830002

>  <PRICE>
N05

$$$$
AE-641/05534039
  MOE2011           3D

 81 84  0  0  1  0  0  0  0  0999 V2000
   -4.2070    0.4220    0.9100 C   0  0  1  0  0  0  0  0  0  0  0  0
   -3.5680   -0.1730   -0.3800 C   0  0  1  0  0  0  0  0  0  0  0  0
    0.8400    0.6200   -0.4990 C   0  0  1  0  0  0  0  0  0  0  0  0
   -1.5590    1.5230   -0.0820 C   0  0  3  0  0  0  0  0  0  0  0  0
   -2.0040    0.0590   -0.4490 C   0  0  3  0  0  0  0  0  0  0  0  0
   -0.0720    1.5490    0.3250 C   0  0  3  0  0  0  0  0  0  0  0  0
   -3.8430    1.9060    0.9870 C   0  0  0  0  0  0  0  0  0  0  0  0
   -2.3670    2.2110    1.0330 C   0  0  0  0  0  0  0  0  0  0  0  0
   -2.2360    3.2970    0.9600 H   0  0  0  0  0  0  0  0  0  0  0  0
   -2.0140    1.9190    2.0290 H   0  0  0  0  0  0  0  0  0  0  0  0
    2.2120    1.0000    0.1420 C   0  0  2  0  0  0  0  0  0  0  0  0
    0.4080   -0.8410   -0.2350 C   0  0  0  0  0  0  0  0  0  0  0  0
    0.5740   -1.4460   -1.1360 H   0  0  0  0  0  0  0  0  0  0  0  0
    1.0350   -1.2990    0.5400 H   0  0  0  0  0  0  0  0  0  0  0  0
   -5.7320    0.2160    0.9570 C   0  0  0  0  0  0  0  0  0  0  0  0
   -6.1310    0.5620    1.9210 H   0  0  0  0  0  0  0  0  0  0  0  0
   -6.2370    0.8350    0.2100 H   0  0  0  0  0  0  0  0  0  0  0  0
   -1.0720   -0.9920    0.2020 C   0  0  0  0  0  0  0  0  0  0  0  0
   -1.1190   -0.9240    1.2930 H   0  0  0  0  0  0  0  0  0  0  0  0
   -1.3740   -2.0110   -0.0590 H   0  0  0  0  0  0  0  0  0  0  0  0
   -3.9320   -1.6830   -0.4540 C   0  0  0  0  0  0  0  0  0  0  0  0
   -3.5230   -2.1270   -1.3700 H   0  0  0  0  0  0  0  0  0  0  0  0
   -3.4790   -2.2220    0.3860 H   0  0  0  0  0  0  0  0  0  0  0  0
    0.6450    2.8990    0.3140 C   0  0  0  0  0  0  0  0  0  0  0  0
    0.3710    3.4910   -0.5660 H   0  0  0  0  0  0  0  0  0  0  0  0
    0.4050    3.4940    1.2010 H   0  0  0  0  0  0  0  0  0  0  0  0
    2.1420    2.5410    0.2700 C   0  0  0  0  0  0  0  0  0  0  0  0
    2.6540    2.8730    1.1800 H   0  0  0  0  0  0  0  0  0  0  0  0
    2.6040    3.0640   -0.5720 H   0  0  0  0  0  0  0  0  0  0  0  0
   -8.3270   -0.9760   -0.1530 C   0  0  0  0  0  0  0  0  0  0  0  0
   -4.6780    2.8080    1.0460 O   0  0  0  0  0  0  0  0  0  0  0  0
   -6.1030   -1.2660    0.7990 C   0  0  1  0  0  0  0  0  0  0  0  0
   -7.5340   -1.4800    0.8300 O   0  0  0  0  0  0  0  0  0  0  0  0
   -3.7110   -0.2260    2.0860 O   0  0  0  0  0  0  0  0  0  0  0  0
   -2.7450   -0.1690    2.1210 H   0  0  0  0  0  0  0  0  0  0  0  0
   -7.9620   -0.3280   -1.1220 O   0  0  0  0  0  0  0  0  0  0  0  0
    3.5010    0.4050   -0.4900 C   0  0  3  0  0  0  0  0  0  0  0  0
   -5.4390   -1.9510   -0.4000 C   0  0  0  0  0  0  0  0  0  0  0  0
   -5.6180   -3.0320   -0.3400 H   0  0  0  0  0  0  0  0  0  0  0  0
   -5.9020   -1.6460   -1.3430 H   0  0  0  0  0  0  0  0  0  0  0  0
   -4.1580    0.5270   -1.6480 C   0  0  0  0  0  0  0  0  0  0  0  0
   -3.7700    0.0620   -2.5620 H   0  0  0  0  0  0  0  0  0  0  0  0
   -3.8980    1.5900   -1.6890 H   0  0  0  0  0  0  0  0  0  0  0  0
   -5.2470    0.4660   -1.7060 H   0  0  0  0  0  0  0  0  0  0  0  0
    0.8130    0.9170   -2.0140 C   0  0  0  0  0  0  0  0  0  0  0  0
    1.4830    0.2400   -2.5540 H   0  0  0  0  0  0  0  0  0  0  0  0
    1.1170    1.9430   -2.2430 H   0  0  0  0  0  0  0  0  0  0  0  0
   -0.1760    0.7870   -2.4570 H   0  0  0  0  0  0  0  0  0  0  0  0
    5.8360   -0.5170    0.1460 C   0  0  0  0  0  0  0  0  0  0  0  0
    5.5620   -1.4350   -0.3840 H   0  0  0  0  0  0  0  0  0  0  0  0
    6.3680    0.1290   -0.5600 H   0  0  0  0  0  0  0  0  0  0  0  0
   -9.7560   -1.3350    0.1240 C   0  0  0  0  0  0  0  0  0  0  0  0
  -10.0740   -0.8880    1.0690 H   0  0  0  0  0  0  0  0  0  0  0  0
   -9.8670   -2.4220    0.1550 H   0  0  0  0  0  0  0  0  0  0  0  0
  -10.3890   -0.9440   -0.6780 H   0  0  0  0  0  0  0  0  0  0  0  0
    4.5600    0.1880    0.6240 C   0  0  0  0  0  0  0  0  0  0  0  0
    4.8250    1.1530    1.0740 H   0  0  0  0  0  0  0  0  0  0  0  0
    4.1120   -0.4200    1.4210 H   0  0  0  0  0  0  0  0  0  0  0  0
    4.1030    1.2310   -1.6340 C   0  0  0  0  0  0  0  0  0  0  0  0
    4.8490    0.6450   -2.1820 H   0  0  0  0  0  0  0  0  0  0  0  0
    4.6030    2.1300   -1.2590 H   0  0  0  0  0  0  0  0  0  0  0  0
    3.3590    1.5410   -2.3680 H   0  0  0  0  0  0  0  0  0  0  0  0
    6.7580   -0.8470    1.3260 C   0  0  0  0  0  0  0  0  0  0  0  0
    6.2170   -1.4950    2.0280 H   0  0  0  0  0  0  0  0  0  0  0  0
    6.9830    0.0770    1.8730 H   0  0  0  0  0  0  0  0  0  0  0  0
    8.0860   -1.5340    0.9530 C   0  0  0  0  0  0  0  0  0  0  0  0
    8.6190   -1.7210    1.8950 H   0  0  0  0  0  0  0  0  0  0  0  0
    8.9830   -0.6400    0.0970 C   0  0  0  0  0  0  0  0  0  0  0  0
    8.5650   -0.4810   -0.9020 H   0  0  0  0  0  0  0  0  0  0  0  0
    9.9710   -1.0970   -0.0280 H   0  0  0  0  0  0  0  0  0  0  0  0
    9.1260    0.3380    0.5690 H   0  0  0  0  0  0  0  0  0  0  0  0
    7.8740   -2.8870    0.2740 C   0  0  0  0  0  0  0  0  0  0  0  0
    7.4310   -2.7780   -0.7210 H   0  0  0  0  0  0  0  0  0  0  0  0
    7.2180   -3.5260    0.8750 H   0  0  0  0  0  0  0  0  0  0  0  0
    8.8290   -3.4090    0.1540 H   0  0  0  0  0  0  0  0  0  0  0  0
   -1.6900    2.1280   -0.9900 H   0  0  0  0  0  0  0  0  0  0  0  0
   -1.7780   -0.0650   -1.5160 H   0  0  0  0  0  0  0  0  0  0  0  0
   -0.0260    1.2020    1.3710 H   0  0  0  0  0  0  0  0  0  0  0  0
    2.1690    0.6140    1.1730 H   0  0  0  0  0  0  0  0  0  0  0  0
   -5.7410   -1.7860    1.6960 H   0  0  0  0  0  0  0  0  0  0  0  0
    3.2480   -0.5860   -0.8900 H   0  0  0  0  0  0  0  0  0  0  0  0
  1  2  1  0  0  0  0
  1  7  1  0  0  0  0
  1 15  1  0  0  0  0
  1 34  1  0  0  0  0
  2  5  1  0  0  0  0
  2 21  1  0  0  0  0
  2 41  1  0  0  0  0
  3  6  1  0  0  0  0
  3 11  1  0  0  0  0
  3 12  1  0  0  0  0
  3 45  1  0  0  0  0
  4  5  1  0  0  0  0
  4  6  1  0  0  0  0
  4  8  1  0  0  0  0
  4 76  1  0  0  0  0
  5 18  1  0  0  0  0
  5 77  1  0  0  0  0
  6 24  1  0  0  0  0
  6 78  1  0  0  0  0
  7  8  1  0  0  0  0
  7 31  2  0  0  0  0
  8  9  1  0  0  0  0
  8 10  1  0  0  0  0
 11 27  1  0  0  0  0
 11 37  1  0  0  0  0
 11 79  1  0  0  0  0
 12 13  1  0  0  0  0
 12 14  1  0  0  0  0
 12 18  1  0  0  0  0
 15 16  1  0  0  0  0
 15 17  1  0  0  0  0
 15 32  1  0  0  0  0
 18 19  1  0  0  0  0
 18 20  1  0  0  0  0
 21 22  1  0  0  0  0
 21 23  1  0  0  0  0
 21 38  1  0  0  0  0
 24 25  1  0  0  0  0
 24 26  1  0  0  0  0
 24 27  1  0  0  0  0
 27 28  1  0  0  0  0
 27 29  1  0  0  0  0
 30 33  1  0  0  0  0
 30 36  2  0  0  0  0
 30 52  1  0  0  0  0
 32 33  1  0  0  0  0
 32 38  1  0  0  0  0
 32 80  1  0  0  0  0
 34 35  1  0  0  0  0
 37 56  1  0  0  0  0
 37 59  1  0  0  0  0
 37 81  1  0  0  0  0
 38 39  1  0  0  0  0
 38 40  1  0  0  0  0
 41 42  1  0  0  0  0
 41 43  1  0  0  0  0
 41 44  1  0  0  0  0
 45 46  1  0  0  0  0
 45 47  1  0  0  0  0
 45 48  1  0  0  0  0
 49 50  1  0  0  0  0
 49 51  1  0  0  0  0
 49 56  1  0  0  0  0
 49 63  1  0  0  0  0
 52 53  1  0  0  0  0
 52 54  1  0  0  0  0
 52 55  1  0  0  0  0
 56 57  1  0  0  0  0
 56 58  1  0  0  0  0
 59 60  1  0  0  0  0
 59 61  1  0  0  0  0
 59 62  1  0  0  0  0
 63 64  1  0  0  0  0
 63 65  1  0  0  0  0
 63 66  1  0  0  0  0
 66 67  1  0  0  0  0
 66 68  1  0  0  0  0
 66 72  1  0  0  0  0
 68 69  1  0  0  0  0
 68 70  1  0  0  0  0
 68 71  1  0  0  0  0
 72 73  1  0  0  0  0
 72 74  1  0  0  0  0
 72 75  1  0  0  0  0
M  END
>  <IDNUMBER>
AE-641/05534039

>  <NAME>
3,5-Dihydroxycholest-7-en-6-one, 7,8-dihydro derivative of

>  <ADD_INFO>
http://www.specs.net/enter.php?specsid=AE-641/05534039

>  <H_ACCEPTORS>
4

>  <H_DONORS>
1

>  <ROTATABLE_BONDS>
7

>  <LOGP>
7.9000001

>  <LOGS>
-8.79

>  <TPSA>
63.599998

>  <PRICE>
N05

$$$$
AE-641/05534044
  MOE2011           3D

 86 90  0  0  1  0  0  0  0  0999 V2000
   -1.7540   -0.4930    0.6370 C   0  0  1  0  0  0  0  0  0  0  0  0
    2.5770    0.6960    1.0990 C   0  0  1  0  0  0  0  0  0  0  0  0
    3.0100    1.0650   -0.3210 C   0  0  0  0  0  0  0  0  0  0  0  0
   -1.3190    1.0140    0.5830 C   0  0  3  0  0  0  0  0  0  0  0  0
    1.0470    0.2940    1.1370 C   0  0  3  0  0  0  0  0  0  0  0  0
    0.1820    1.2990    0.3460 C   0  0  3  0  0  0  0  0  0  0  0  0
   -3.0460   -0.5560   -0.2720 C   0  0  2  0  0  0  0  0  0  0  0  0
    7.4780   -0.8800   -0.3260 C   0  0  0  0  0  0  0  0  0  0  0  0
    2.1260    1.3400   -1.2980 C   0  0  0  0  0  0  0  0  0  0  0  0
    2.4860    1.5920   -2.2930 H   0  0  0  0  0  0  0  0  0  0  0  0
   -0.6420   -1.4050    0.0900 C   0  0  0  0  0  0  0  0  0  0  0  0
   -0.8830   -2.4610    0.2490 H   0  0  0  0  0  0  0  0  0  0  0  0
   -0.5860   -1.2980   -1.0000 H   0  0  0  0  0  0  0  0  0  0  0  0
    0.6350    1.3730   -1.1240 C   0  0  0  0  0  0  0  0  0  0  0  0
    0.2710    2.3130   -1.5570 H   0  0  0  0  0  0  0  0  0  0  0  0
    0.2050    0.5680   -1.7260 H   0  0  0  0  0  0  0  0  0  0  0  0
    0.7570   -1.1510    0.6620 C   0  0  0  0  0  0  0  0  0  0  0  0
    1.4750   -1.4610   -0.1070 H   0  0  0  0  0  0  0  0  0  0  0  0
    0.9130   -1.8280    1.5130 H   0  0  0  0  0  0  0  0  0  0  0  0
   -2.2790    1.7030   -0.3870 C   0  0  0  0  0  0  0  0  0  0  0  0
   -2.4320    2.7570   -0.1350 H   0  0  0  0  0  0  0  0  0  0  0  0
   -1.9360    1.6490   -1.4250 H   0  0  0  0  0  0  0  0  0  0  0  0
    3.4610   -0.4570    1.6650 C   0  0  0  0  0  0  0  0  0  0  0  0
    3.2700   -0.5800    2.7390 H   0  0  0  0  0  0  0  0  0  0  0  0
    3.2030   -1.4150    1.2010 H   0  0  0  0  0  0  0  0  0  0  0  0
   -3.5540    0.8930   -0.2470 C   0  0  0  0  0  0  0  0  0  0  0  0
   -4.2420    1.1160   -1.0680 H   0  0  0  0  0  0  0  0  0  0  0  0
   -4.0510    1.1230    0.7020 H   0  0  0  0  0  0  0  0  0  0  0  0
    6.6690    0.2040   -0.2210 O   0  0  0  0  0  0  0  0  0  0  0  0
    4.4960    1.1520   -0.5830 C   0  0  0  0  0  0  0  0  0  0  0  0
    4.8890    2.0690   -0.1230 H   0  0  0  0  0  0  0  0  0  0  0  0
    4.7090    1.2580   -1.6550 H   0  0  0  0  0  0  0  0  0  0  0  0
    7.1280   -2.0480   -0.2810 O   0  0  0  0  0  0  0  0  0  0  0  0
    5.2620   -0.0590   -0.0470 C   0  0  2  0  0  0  0  0  0  0  0  0
    8.8890   -0.4570   -0.5200 C   0  0  0  0  0  0  0  0  0  0  0  0
   -4.1480   -1.6130    0.0460 C   0  0  3  0  0  0  0  0  0  0  0  0
    4.9610   -0.2690    1.4380 C   0  0  0  0  0  0  0  0  0  0  0  0
    5.4980   -1.1520    1.8060 H   0  0  0  0  0  0  0  0  0  0  0  0
    5.3490    0.5700    2.0270 H   0  0  0  0  0  0  0  0  0  0  0  0
   -2.0590   -0.8650    2.1060 C   0  0  0  0  0  0  0  0  0  0  0  0
   -2.3100   -1.9220    2.2200 H   0  0  0  0  0  0  0  0  0  0  0  0
   -2.8980   -0.2790    2.4980 H   0  0  0  0  0  0  0  0  0  0  0  0
   -1.2020   -0.6740    2.7590 H   0  0  0  0  0  0  0  0  0  0  0  0
    2.7840    1.9460    1.9970 C   0  0  0  0  0  0  0  0  0  0  0  0
    2.4300    1.7570    3.0170 H   0  0  0  0  0  0  0  0  0  0  0  0
    2.2520    2.8240    1.6170 H   0  0  0  0  0  0  0  0  0  0  0  0
    3.8380    2.2350    2.0700 H   0  0  0  0  0  0  0  0  0  0  0  0
   -6.5230   -0.6430   -0.2040 C   0  0  0  0  0  0  0  0  0  0  0  0
   -6.8810   -1.1830    0.6800 H   0  0  0  0  0  0  0  0  0  0  0  0
   -6.1470    0.3220    0.1410 H   0  0  0  0  0  0  0  0  0  0  0  0
   -5.3960   -1.4480   -0.8650 C   0  0  0  0  0  0  0  0  0  0  0  0
   -5.1110   -0.9910   -1.8210 H   0  0  0  0  0  0  0  0  0  0  0  0
   -5.8120   -2.4320   -1.1180 H   0  0  0  0  0  0  0  0  0  0  0  0
    9.8510   -1.4510   -0.7460 C   0  0  0  0  0  0  0  0  0  0  0  0
    9.5640   -2.5000   -0.7750 H   0  0  0  0  0  0  0  0  0  0  0  0
    9.2820    0.8880   -0.4860 C   0  0  0  0  0  0  0  0  0  0  0  0
    8.5600    1.6810   -0.3100 H   0  0  0  0  0  0  0  0  0  0  0  0
   -3.6190   -3.0440   -0.1360 C   0  0  0  0  0  0  0  0  0  0  0  0
   -4.4200   -3.7770    0.0140 H   0  0  0  0  0  0  0  0  0  0  0  0
   -2.8440   -3.2910    0.5910 H   0  0  0  0  0  0  0  0  0  0  0  0
   -3.2100   -3.1910   -1.1410 H   0  0  0  0  0  0  0  0  0  0  0  0
   -7.6870   -0.4240   -1.1760 C   0  0  0  0  0  0  0  0  0  0  0  0
   -8.0020   -1.3980   -1.5730 H   0  0  0  0  0  0  0  0  0  0  0  0
   -7.3360    0.1650   -2.0330 H   0  0  0  0  0  0  0  0  0  0  0  0
   -8.9050    0.2660   -0.5350 C   0  0  0  0  0  0  0  0  0  0  0  0
   -9.2390   -0.3340    0.3210 H   0  0  0  0  0  0  0  0  0  0  0  0
   -8.5850    1.6760   -0.0360 C   0  0  0  0  0  0  0  0  0  0  0  0
   -8.1770    2.2990   -0.8390 H   0  0  0  0  0  0  0  0  0  0  0  0
   -7.8590    1.6560    0.7830 H   0  0  0  0  0  0  0  0  0  0  0  0
   -9.4870    2.1670    0.3460 H   0  0  0  0  0  0  0  0  0  0  0  0
  -10.0560    0.3260   -1.5430 C   0  0  0  0  0  0  0  0  0  0  0  0
   -9.7850    0.9230   -2.4210 H   0  0  0  0  0  0  0  0  0  0  0  0
  -10.9470    0.7740   -1.0900 H   0  0  0  0  0  0  0  0  0  0  0  0
  -10.3260   -0.6780   -1.8860 H   0  0  0  0  0  0  0  0  0  0  0  0
   11.1900   -1.1040   -0.9370 C   0  0  0  0  0  0  0  0  0  0  0  0
   11.9320   -1.8790   -1.1130 H   0  0  0  0  0  0  0  0  0  0  0  0
   10.6230    1.2300   -0.6770 C   0  0  0  0  0  0  0  0  0  0  0  0
   10.9260    2.2740   -0.6500 H   0  0  0  0  0  0  0  0  0  0  0  0
   11.5750    0.2360   -0.9030 C   0  0  0  0  0  0  0  0  0  0  0  0
   12.6170    0.5050   -1.0520 H   0  0  0  0  0  0  0  0  0  0  0  0
   -1.5420    1.4470    1.5710 H   0  0  0  0  0  0  0  0  0  0  0  0
    0.7340    0.3450    2.1890 H   0  0  0  0  0  0  0  0  0  0  0  0
    0.3500    2.3020    0.7620 H   0  0  0  0  0  0  0  0  0  0  0  0
   -2.7180   -0.7460   -1.3050 H   0  0  0  0  0  0  0  0  0  0  0  0
    4.9690   -0.9450   -0.6270 H   0  0  0  0  0  0  0  0  0  0  0  0
   -4.4680   -1.5080    1.0890 H   0  0  0  0  0  0  0  0  0  0  0  0
  1  4  1  0  0  0  0
  1  7  1  0  0  0  0
  1 11  1  0  0  0  0
  1 40  1  0  0  0  0
  2  3  1  0  0  0  0
  2  5  1  0  0  0  0
  2 23  1  0  0  0  0
  2 44  1  0  0  0  0
  3  9  2  0  0  0  0
  3 30  1  0  0  0  0
  4  6  1  0  0  0  0
  4 20  1  0  0  0  0
  4 81  1  0  0  0  0
  5  6  1  0  0  0  0
  5 17  1  0  0  0  0
  5 82  1  0  0  0  0
  6 14  1  0  0  0  0
  6 83  1  0  0  0  0
  7 26  1  0  0  0  0
  7 36  1  0  0  0  0
  7 84  1  0  0  0  0
  8 29  1  0  0  0  0
  8 33  2  0  0  0  0
  8 35  1  0  0  0  0
  9 10  1  0  0  0  0
  9 14  1  0  0  0  0
 11 12  1  0  0  0  0
 11 13  1  0  0  0  0
 11 17  1  0  0  0  0
 14 15  1  0  0  0  0
 14 16  1  0  0  0  0
 17 18  1  0  0  0  0
 17 19  1  0  0  0  0
 20 21  1  0  0  0  0
 20 22  1  0  0  0  0
 20 26  1  0  0  0  0
 23 24  1  0  0  0  0
 23 25  1  0  0  0  0
 23 37  1  0  0  0  0
 26 27  1  0  0  0  0
 26 28  1  0  0  0  0
 29 34  1  0  0  0  0
 30 31  1  0  0  0  0
 30 32  1  0  0  0  0
 30 34  1  0  0  0  0
 34 37  1  0  0  0  0
 34 85  1  0  0  0  0
 35 54  2  0  0  0  0
 35 56  1  0  0  0  0
 36 51  1  0  0  0  0
 36 58  1  0  0  0  0
 36 86  1  0  0  0  0
 37 38  1  0  0  0  0
 37 39  1  0  0  0  0
 40 41  1  0  0  0  0
 40 42  1  0  0  0  0
 40 43  1  0  0  0  0
 44 45  1  0  0  0  0
 44 46  1  0  0  0  0
 44 47  1  0  0  0  0
 48 49  1  0  0  0  0
 48 50  1  0  0  0  0
 48 51  1  0  0  0  0
 48 62  1  0  0  0  0
 51 52  1  0  0  0  0
 51 53  1  0  0  0  0
 54 55  1  0  0  0  0
 54 75  1  0  0  0  0
 56 57  1  0  0  0  0
 56 77  2  0  0  0  0
 58 59  1  0  0  0  0
 58 60  1  0  0  0  0
 58 61  1  0  0  0  0
 62 63  1  0  0  0  0
 62 64  1  0  0  0  0
 62 65  1  0  0  0  0
 65 66  1  0  0  0  0
 65 67  1  0  0  0  0
 65 71  1  0  0  0  0
 67 68  1  0  0  0  0
 67 69  1  0  0  0  0
 67 70  1  0  0  0  0
 71 72  1  0  0  0  0
 71 73  1  0  0  0  0
 71 74  1  0  0  0  0
 75 76  1  0  0  0  0
 75 79  2  0  0  0  0
 77 78  1  0  0  0  0
 77 79  1  0  0  0  0
 79 80  1  0  0  0  0
M  END
>  <IDNUMBER>
AE-641/05534044

>  <NAME>
Cholest-5-en-3-ol, benzoyl derivative of

>  <ADD_INFO>
http://www.specs.net/enter.php?specsid=AE-641/05534044

>  <H_ACCEPTORS>
2

>  <H_DONORS>
0

>  <ROTATABLE_BONDS>
8

>  <LOGP>
11.2

>  <LOGS>
-12.34

>  <TPSA>
26.299999

>  <PRICE>
N05

$$$$
AE-641/10452042
  MOE2011           3D

 81 85  0  0  1  0  0  0  0  0999 V2000
    1.0920   -0.3270    0.3480 C   0  0  0  0  0  0  0  0  0  0  0  0
   -1.1920    0.8140   -0.2570 C   0  0  1  0  0  0  0  0  0  0  0  0
    0.2090    0.9260    0.5760 C   0  0  2  0  0  0  0  0  0  0  0  0
   -3.3630   -0.7930   -0.4260 C   0  0  2  0  0  0  0  0  0  0  0  0
   -1.8530   -0.5810    0.0420 C   0  0  3  0  0  0  0  0  0  0  0  0
    0.5680   -1.4810   -0.1060 C   0  0  0  0  0  0  0  0  0  0  0  0
    1.1580   -2.3750   -0.2720 H   0  0  0  0  0  0  0  0  0  0  0  0
   -0.8780   -1.6870   -0.3700 C   0  0  0  0  0  0  0  0  0  0  0  0
   -4.2060    0.4320    0.0940 C   0  0  3  0  0  0  0  0  0  0  0  0
   -5.7640    0.3310   -0.0710 C   0  0  0  0  0  0  0  0  0  0  0  0
    2.5820   -0.2120    0.7490 C   0  0  3  0  0  0  0  0  0  0  0  0
   -6.2450   -1.0210    0.5000 C   0  0  0  0  0  0  0  0  0  0  0  0
   -3.9420   -2.0530    0.2970 C   0  0  0  0  0  0  0  0  0  0  0  0
   -3.7260   -1.9700    1.3720 H   0  0  0  0  0  0  0  0  0  0  0  0
   -3.4320   -2.9600   -0.0420 H   0  0  0  0  0  0  0  0  0  0  0  0
    4.9660   -1.3100    0.8310 C   0  0  1  0  0  0  0  0  0  0  0  0
    3.4550   -1.4690    0.4800 C   0  0  0  0  0  0  0  0  0  0  0  0
    3.3330   -1.7670   -0.5680 H   0  0  0  0  0  0  0  0  0  0  0  0
    3.0380   -2.2970    1.0700 H   0  0  0  0  0  0  0  0  0  0  0  0
    3.2630    1.0690    0.1920 C   0  0  1  0  0  0  0  0  0  0  0  0
   -5.4420   -2.2490    0.1060 C   0  0  3  0  0  0  0  0  0  0  0  0
   -2.1780    1.9420    0.1470 C   0  0  0  0  0  0  0  0  0  0  0  0
   -2.2690    2.0010    1.2360 H   0  0  0  0  0  0  0  0  0  0  0  0
   -1.7990    2.9170   -0.1800 H   0  0  0  0  0  0  0  0  0  0  0  0
    5.8300   -1.4640   -0.4360 C   0  0  0  0  0  0  0  0  0  0  0  0
    0.9750    2.2240    0.1640 C   0  0  0  0  0  0  0  0  0  0  0  0
    1.0000    2.3490   -0.9190 H   0  0  0  0  0  0  0  0  0  0  0  0
    0.4460    3.1050    0.5480 H   0  0  0  0  0  0  0  0  0  0  0  0
   -3.6000    1.7640   -0.3920 C   0  0  0  0  0  0  0  0  0  0  0  0
   -3.6130    1.8440   -1.4820 H   0  0  0  0  0  0  0  0  0  0  0  0
   -4.1820    2.6130   -0.0230 H   0  0  0  0  0  0  0  0  0  0  0  0
   -1.2220   -2.7660   -0.8450 O   0  0  0  0  0  0  0  0  0  0  0  0
    2.4280    2.2950    0.6340 C   0  0  0  0  0  0  0  0  0  0  0  0
    2.4520    2.3940    1.7260 H   0  0  0  0  0  0  0  0  0  0  0  0
    2.8780    3.2160    0.2390 H   0  0  0  0  0  0  0  0  0  0  0  0
   -7.2890   -1.0960    1.1510 O   0  0  0  0  0  0  0  0  0  0  0  0
    5.2120    0.0300    1.5520 C   0  0  0  0  0  0  0  0  0  0  0  0
    4.7140    0.0170    2.5310 H   0  0  0  0  0  0  0  0  0  0  0  0
    6.2760    0.1760    1.7760 H   0  0  0  0  0  0  0  0  0  0  0  0
    4.7030    1.2350    0.7600 C   0  0  0  0  0  0  0  0  0  0  0  0
    5.4090    1.4510   -0.0520 H   0  0  0  0  0  0  0  0  0  0  0  0
    4.7620    2.1090    1.4220 H   0  0  0  0  0  0  0  0  0  0  0  0
    5.5140   -2.1390   -1.4090 O   0  0  0  0  0  0  0  0  0  0  0  0
   -0.9130    0.9780   -1.7840 C   0  0  0  0  0  0  0  0  0  0  0  0
   -1.7850    0.7810   -2.4020 H   0  0  0  0  0  0  0  0  0  0  0  0
   -0.1140    0.3220   -2.1400 H   0  0  0  0  0  0  0  0  0  0  0  0
   -0.6360    2.0060   -2.0370 H   0  0  0  0  0  0  0  0  0  0  0  0
   -3.4690   -1.0030   -1.9570 C   0  0  0  0  0  0  0  0  0  0  0  0
   -4.2530   -1.7130   -2.2330 H   0  0  0  0  0  0  0  0  0  0  0  0
   -2.5530   -1.4120   -2.3910 H   0  0  0  0  0  0  0  0  0  0  0  0
   -3.6900   -0.0800   -2.4950 H   0  0  0  0  0  0  0  0  0  0  0  0
   -6.0000   -3.7730    1.2090 Br  0  0  0  0  0  0  0  0  0  0  0  0
   -0.0360    1.0140    2.1140 C   0  0  0  0  0  0  0  0  0  0  0  0
   -0.5490    1.9390    2.3940 H   0  0  0  0  0  0  0  0  0  0  0  0
    0.8980    1.0160    2.6850 H   0  0  0  0  0  0  0  0  0  0  0  0
   -0.6200    0.1730    2.4980 H   0  0  0  0  0  0  0  0  0  0  0  0
    7.0210   -0.8110   -0.3190 O   0  0  0  0  0  0  0  0  0  0  0  0
   -6.2790    0.4520   -1.5130 C   0  0  0  0  0  0  0  0  0  0  0  0
   -5.8910    1.3470   -2.0090 H   0  0  0  0  0  0  0  0  0  0  0  0
   -7.3740    0.5210   -1.5270 H   0  0  0  0  0  0  0  0  0  0  0  0
   -6.0350   -0.4170   -2.1260 H   0  0  0  0  0  0  0  0  0  0  0  0
   -6.4480    1.4570    0.7490 C   0  0  0  0  0  0  0  0  0  0  0  0
   -6.2580    2.4480    0.3270 H   0  0  0  0  0  0  0  0  0  0  0  0
   -6.1060    1.4530    1.7900 H   0  0  0  0  0  0  0  0  0  0  0  0
   -7.5380    1.3360    0.7690 H   0  0  0  0  0  0  0  0  0  0  0  0
    5.4020   -2.4590    1.7610 C   0  0  0  0  0  0  0  0  0  0  0  0
    4.8350   -2.4500    2.6980 H   0  0  0  0  0  0  0  0  0  0  0  0
    6.4660   -2.3840    2.0130 H   0  0  0  0  0  0  0  0  0  0  0  0
    5.2500   -3.4340    1.2830 H   0  0  0  0  0  0  0  0  0  0  0  0
    3.3530    1.0350   -1.3540 C   0  0  0  0  0  0  0  0  0  0  0  0
    3.7100    1.9960   -1.7440 H   0  0  0  0  0  0  0  0  0  0  0  0
    2.3900    0.8260   -1.8280 H   0  0  0  0  0  0  0  0  0  0  0  0
    4.0510    0.2690   -1.7040 H   0  0  0  0  0  0  0  0  0  0  0  0
    7.8780   -0.9290   -1.4560 C   0  0  0  0  0  0  0  0  0  0  0  0
    7.3950   -0.5070   -2.3420 H   0  0  0  0  0  0  0  0  0  0  0  0
    8.1510   -1.9750   -1.6220 H   0  0  0  0  0  0  0  0  0  0  0  0
    8.7900   -0.3600   -1.2540 H   0  0  0  0  0  0  0  0  0  0  0  0
   -1.9060   -0.6780    1.1350 H   0  0  0  0  0  0  0  0  0  0  0  0
   -4.0550    0.4310    1.1880 H   0  0  0  0  0  0  0  0  0  0  0  0
    2.5600   -0.1170    1.8450 H   0  0  0  0  0  0  0  0  0  0  0  0
   -5.7080   -2.5350   -0.9140 H   0  0  0  0  0  0  0  0  0  0  0  0
  1  3  1  0  0  0  0
  1  6  2  0  0  0  0
  1 11  1  0  0  0  0
  2  3  1  0  0  0  0
  2  5  1  0  0  0  0
  2 22  1  0  0  0  0
  2 44  1  0  0  0  0
  3 26  1  0  0  0  0
  3 53  1  0  0  0  0
  4  5  1  0  0  0  0
  4  9  1  0  0  0  0
  4 13  1  0  0  0  0
  4 48  1  0  0  0  0
  5  8  1  0  0  0  0
  5 78  1  0  0  0  0
  6  7  1  0  0  0  0
  6  8  1  0  0  0  0
  8 32  2  0  0  0  0
  9 10  1  0  0  0  0
  9 29  1  0  0  0  0
  9 79  1  0  0  0  0
 10 12  1  0  0  0  0
 10 58  1  0  0  0  0
 10 62  1  0  0  0  0
 11 17  1  0  0  0  0
 11 20  1  0  0  0  0
 11 80  1  0  0  0  0
 12 21  1  0  0  0  0
 12 36  2  0  0  0  0
 13 14  1  0  0  0  0
 13 15  1  0  0  0  0
 13 21  1  0  0  0  0
 16 17  1  0  0  0  0
 16 25  1  0  0  0  0
 16 37  1  0  0  0  0
 16 66  1  0  0  0  0
 17 18  1  0  0  0  0
 17 19  1  0  0  0  0
 20 33  1  0  0  0  0
 20 40  1  0  0  0  0
 20 70  1  0  0  0  0
 21 52  1  0  0  0  0
 21 81  1  0  0  0  0
 22 23  1  0  0  0  0
 22 24  1  0  0  0  0
 22 29  1  0  0  0  0
 25 43  2  0  0  0  0
 25 57  1  0  0  0  0
 26 27  1  0  0  0  0
 26 28  1  0  0  0  0
 26 33  1  0  0  0  0
 29 30  1  0  0  0  0
 29 31  1  0  0  0  0
 33 34  1  0  0  0  0
 33 35  1  0  0  0  0
 37 38  1  0  0  0  0
 37 39  1  0  0  0  0
 37 40  1  0  0  0  0
 40 41  1  0  0  0  0
 40 42  1  0  0  0  0
 44 45  1  0  0  0  0
 44 46  1  0  0  0  0
 44 47  1  0  0  0  0
 48 49  1  0  0  0  0
 48 50  1  0  0  0  0
 48 51  1  0  0  0  0
 53 54  1  0  0  0  0
 53 55  1  0  0  0  0
 53 56  1  0  0  0  0
 57 74  1  0  0  0  0
 58 59  1  0  0  0  0
 58 60  1  0  0  0  0
 58 61  1  0  0  0  0
 62 63  1  0  0  0  0
 62 64  1  0  0  0  0
 62 65  1  0  0  0  0
 66 67  1  0  0  0  0
 66 68  1  0  0  0  0
 66 69  1  0  0  0  0
 70 71  1  0  0  0  0
 70 72  1  0  0  0  0
 70 73  1  0  0  0  0
 74 75  1  0  0  0  0
 74 76  1  0  0  0  0
 74 77  1  0  0  0  0
M  END
>  <IDNUMBER>
AE-641/10452042

>  <NAME>
3-Hydroxy-11-oxo-12-oleanen-29-oic acid, derivative of

>  <ADD_INFO>
http://www.specs.net/enter.php?specsid=AE-641/10452042

>  <H_ACCEPTORS>
4

>  <H_DONORS>
0

>  <ROTATABLE_BONDS>
2

>  <LOGP>
6.9400001

>  <LOGS>
-9.2200003

>  <TPSA>
60.439999

>  <PRICE>
N04

$$$$
AE-641/11399027
  MOE2011           3D

 38 41  0  0  1  0  0  0  0  0999 V2000
   -0.7970   -0.8790   -0.2360 C   0  0  1  0  0  0  0  0  0  0  0  0
    1.7230    0.4190    0.1030 C   0  0  0  0  0  0  0  0  0  0  0  0
    0.4900    1.2570    0.0800 C   0  0  0  0  0  0  0  0  0  0  0  0
   -0.7740    0.6230   -0.0330 C   0  0  0  0  0  0  0  0  0  0  0  0
    1.6030   -0.9560    0.4430 C   0  0  0  0  0  0  0  0  0  0  0  0
    0.2290   -1.5400    0.7020 C   0  0  0  0  0  0  0  0  0  0  0  0
   -0.0310   -1.3790    1.7560 H   0  0  0  0  0  0  0  0  0  0  0  0
    0.2460   -2.6220    0.5200 H   0  0  0  0  0  0  0  0  0  0  0  0
   -2.1590   -1.5640   -0.0610 N   0  3  3  0  0  0  0  0  0  0  0  0
   -2.0220   -2.3800    0.5490 H   0  0  0  0  0  0  0  0  0  0  0  0
    3.0160    0.8770   -0.1900 C   0  0  0  0  0  0  0  0  0  0  0  0
   -1.9680    1.3670    0.0290 C   0  0  0  0  0  0  0  0  0  0  0  0
    4.1320    0.0380   -0.0920 C   0  0  0  0  0  0  0  0  0  0  0  0
    2.7350   -1.7860    0.5560 C   0  0  0  0  0  0  0  0  0  0  0  0
    2.6270   -2.8300    0.8430 H   0  0  0  0  0  0  0  0  0  0  0  0
   -3.1790   -0.7050    0.6510 C   0  0  0  0  0  0  0  0  0  0  0  0
   -4.1330   -1.2430    0.6390 H   0  0  0  0  0  0  0  0  0  0  0  0
   -2.8430   -0.6260    1.6920 H   0  0  0  0  0  0  0  0  0  0  0  0
   -3.2960    0.6630   -0.0090 C   0  0  0  0  0  0  0  0  0  0  0  0
   -3.6360    0.5840   -1.0470 H   0  0  0  0  0  0  0  0  0  0  0  0
   -4.0450    1.2470    0.5390 H   0  0  0  0  0  0  0  0  0  0  0  0
    4.0070   -1.2870    0.2910 C   0  0  0  0  0  0  0  0  0  0  0  0
    4.8700   -1.9410    0.3730 H   0  0  0  0  0  0  0  0  0  0  0  0
    3.2620    2.1580   -0.6160 O   0  0  0  0  0  0  0  0  0  0  0  0
    4.2330    2.1840   -0.7520 H   0  0  0  0  0  0  0  0  0  0  0  0
    0.5000    2.6520    0.2340 C   0  0  0  0  0  0  0  0  0  0  0  0
    1.4330    3.1950    0.3650 H   0  0  0  0  0  0  0  0  0  0  0  0
    5.3440    0.5970   -0.3990 O   0  0  0  0  0  0  0  0  0  0  0  0
    6.0410   -0.0720   -0.2680 H   0  0  0  0  0  0  0  0  0  0  0  0
   -2.6770   -2.1360   -1.3570 C   0  0  0  0  0  0  0  0  0  0  0  0
   -2.8040   -1.3260   -2.0790 H   0  0  0  0  0  0  0  0  0  0  0  0
   -3.6280   -2.6360   -1.1530 H   0  0  0  0  0  0  0  0  0  0  0  0
   -1.9460   -2.8660   -1.7150 H   0  0  0  0  0  0  0  0  0  0  0  0
   -0.6820    3.3960    0.2470 C   0  0  0  0  0  0  0  0  0  0  0  0
   -0.6390    4.4760    0.3590 H   0  0  0  0  0  0  0  0  0  0  0  0
   -1.9120    2.7570    0.1430 C   0  0  0  0  0  0  0  0  0  0  0  0
   -2.8230    3.3500    0.1740 H   0  0  0  0  0  0  0  0  0  0  0  0
   -0.4990   -1.0650   -1.2770 H   0  0  0  0  0  0  0  0  0  0  0  0
  1  4  1  0  0  0  0
  1  6  1  0  0  0  0
  1  9  1  0  0  0  0
  1 38  1  0  0  0  0
  2  3  1  0  0  0  0
  2  5  2  0  0  0  0
  2 11  1  0  0  0  0
  3  4  2  0  0  0  0
  3 26  1  0  0  0  0
  4 12  1  0  0  0  0
  5  6  1  0  0  0  0
  5 14  1  0  0  0  0
  6  7  1  0  0  0  0
  6  8  1  0  0  0  0
  9 10  1  0  0  0  0
  9 16  1  0  0  0  0
  9 30  1  0  0  0  0
 11 13  2  0  0  0  0
 11 24  1  0  0  0  0
 12 19  1  0  0  0  0
 12 36  2  0  0  0  0
 13 22  1  0  0  0  0
 13 28  1  0  0  0  0
 14 15  1  0  0  0  0
 14 22  2  0  0  0  0
 16 17  1  0  0  0  0
 16 18  1  0  0  0  0
 16 19  1  0  0  0  0
 19 20  1  0  0  0  0
 19 21  1  0  0  0  0
 22 23  1  0  0  0  0
 24 25  1  0  0  0  0
 26 27  1  0  0  0  0
 26 34  2  0  0  0  0
 28 29  1  0  0  0  0
 30 31  1  0  0  0  0
 30 32  1  0  0  0  0
 30 33  1  0  0  0  0
 34 35  1  0  0  0  0
 34 36  1  0  0  0  0
 36 37  1  0  0  0  0
M  CHG  1   9   1
M  END
>  <IDNUMBER>
AE-641/11399027

>  <NAME>
Apomorphine

>  <ADD_INFO>
http://www.specs.net/enter.php?specsid=AE-641/11399027

>  <H_ACCEPTORS>
1

>  <H_DONORS>
2

>  <ROTATABLE_BONDS>
0

>  <LOGP>
2.3

>  <LOGS>
-2.6400001

>  <TPSA>
43.700001

>  <PRICE>
N07

$$$$
AE-641/20167001
  MOE2011           3D

 90 94  0  0  1  0  0  0  0  0999 V2000
   -1.2960   -0.7120   -0.0600 C   0  0  3  0  0  0  0  0  0  0  0  0
    0.1970   -0.5600   -0.6760 C   0  0  3  0  0  0  0  0  0  0  0  0
    2.4940    0.7630   -0.0870 C   0  0  3  0  0  0  0  0  0  0  0  0
   -1.9930    0.6860   -0.1820 C   0  0  3  0  0  0  0  0  0  0  0  0
    0.8930    0.8110   -0.2800 C   0  0  3  0  0  0  0  0  0  0  0  0
    3.1660   -0.3200   -1.0030 C   0  0  3  0  0  0  0  0  0  0  0  0
   -3.5300    0.6300    0.0350 C   0  0  3  0  0  0  0  0  0  0  0  0
    4.7600   -0.3890   -0.9210 C   0  0  0  0  0  0  0  0  0  0  0  0
   -4.2380   -0.3430   -0.9560 C   0  0  3  0  0  0  0  0  0  0  0  0
   -4.2210    2.0100   -0.1780 C   0  0  3  0  0  0  0  0  0  0  0  0
    5.2790    0.0800    0.4780 C   0  0  3  0  0  0  0  0  0  0  0  0
    1.0920   -1.7290   -0.2320 C   0  0  0  0  0  0  0  0  0  0  0  0
    1.1770   -1.7410    0.8600 H   0  0  0  0  0  0  0  0  0  0  0  0
    0.6340   -2.6900   -0.4950 H   0  0  0  0  0  0  0  0  0  0  0  0
   -2.1400   -1.8190   -0.7860 C   0  0  0  0  0  0  0  0  0  0  0  0
   -1.5040   -2.4920   -1.3680 H   0  0  0  0  0  0  0  0  0  0  0  0
   -2.5960   -2.4950   -0.0530 H   0  0  0  0  0  0  0  0  0  0  0  0
   -1.3190    1.7300    0.7210 C   0  0  0  0  0  0  0  0  0  0  0  0
   -1.5110    2.7300    0.3130 H   0  0  0  0  0  0  0  0  0  0  0  0
   -1.7720    1.7260    1.7210 H   0  0  0  0  0  0  0  0  0  0  0  0
    2.9160    0.4990    1.3900 C   0  0  0  0  0  0  0  0  0  0  0  0
    2.9390    1.4510    1.9380 H   0  0  0  0  0  0  0  0  0  0  0  0
    2.1720   -0.1140    1.9090 H   0  0  0  0  0  0  0  0  0  0  0  0
    0.1920    1.5690    0.8730 C   0  0  0  0  0  0  0  0  0  0  0  0
    0.3980    1.0940    1.8340 H   0  0  0  0  0  0  0  0  0  0  0  0
    0.6120    2.5750    0.9820 H   0  0  0  0  0  0  0  0  0  0  0  0
    2.5100   -1.7120   -0.7930 C   0  0  0  0  0  0  0  0  0  0  0  0
    2.5130   -2.2410   -1.7550 H   0  0  0  0  0  0  0  0  0  0  0  0
    3.0980   -2.3320   -0.1100 H   0  0  0  0  0  0  0  0  0  0  0  0
    6.5230   -0.5900    0.7890 O   0  0  0  0  0  0  0  0  0  0  0  0
   -5.3570    1.7920   -1.1760 C   0  0  0  0  0  0  0  0  0  0  0  0
   -6.3120    1.5900   -0.6790 H   0  0  0  0  0  0  0  0  0  0  0  0
   -5.5080    2.6710   -1.8110 H   0  0  0  0  0  0  0  0  0  0  0  0
    7.3800    0.0460    1.6340 C   0  0  0  0  0  0  0  0  0  0  0  0
   -4.7780    2.5840    1.1180 C   0  0  0  0  0  0  0  0  0  0  0  0
   -5.5250   -2.6310    1.7270 C   0  0  0  0  0  0  0  0  0  0  0  0
   -3.2560   -1.2880   -1.6800 C   0  0  0  0  0  0  0  0  0  0  0  0
   -3.8040   -2.1330   -2.1160 H   0  0  0  0  0  0  0  0  0  0  0  0
   -2.7930   -0.7760   -2.5320 H   0  0  0  0  0  0  0  0  0  0  0  0
   -4.9020    0.5940   -1.9870 C   0  0  0  0  0  0  0  0  0  0  0  0
   -4.1770    0.9330   -2.7390 H   0  0  0  0  0  0  0  0  0  0  0  0
   -5.7330    0.1220   -2.5210 H   0  0  0  0  0  0  0  0  0  0  0  0
    4.2660   -0.2040    1.5840 C   0  0  0  0  0  0  0  0  0  0  0  0
    4.1120   -1.2870    1.6630 H   0  0  0  0  0  0  0  0  0  0  0  0
    4.6760    0.0810    2.5610 H   0  0  0  0  0  0  0  0  0  0  0  0
   -5.3520   -1.1430   -0.2160 C   0  0  0  0  0  0  0  0  0  0  0  0
   -5.8960   -1.7720   -0.9300 H   0  0  0  0  0  0  0  0  0  0  0  0
   -6.0580   -0.4560    0.2590 H   0  0  0  0  0  0  0  0  0  0  0  0
   -4.7770   -1.9990    0.7910 O   0  0  0  0  0  0  0  0  0  0  0  0
    7.1970    1.1340    2.1610 O   0  0  0  0  0  0  0  0  0  0  0  0
   -5.0050   -3.3490    2.5760 O   0  0  0  0  0  0  0  0  0  0  0  0
   -5.4120    1.8960    1.9190 O   0  0  0  0  0  0  0  0  0  0  0  0
   -1.2630   -1.1880    1.4280 C   0  0  0  0  0  0  0  0  0  0  0  0
   -2.2550   -1.1360    1.8880 H   0  0  0  0  0  0  0  0  0  0  0  0
   -0.5880   -0.6230    2.0660 H   0  0  0  0  0  0  0  0  0  0  0  0
   -0.9480   -2.2370    1.5000 H   0  0  0  0  0  0  0  0  0  0  0  0
    0.1150   -0.5920   -2.2420 C   0  0  0  0  0  0  0  0  0  0  0  0
    1.0480   -0.2960   -2.7230 H   0  0  0  0  0  0  0  0  0  0  0  0
   -0.6400    0.0970   -2.6280 H   0  0  0  0  0  0  0  0  0  0  0  0
   -0.1140   -1.5910   -2.6250 H   0  0  0  0  0  0  0  0  0  0  0  0
    2.9820    2.1900   -0.4830 C   0  0  0  0  0  0  0  0  0  0  0  0
    2.4200    2.9750    0.0300 H   0  0  0  0  0  0  0  0  0  0  0  0
    2.8580    2.3590   -1.5590 H   0  0  0  0  0  0  0  0  0  0  0  0
    4.0220    2.3830   -0.2280 H   0  0  0  0  0  0  0  0  0  0  0  0
    5.3880    0.5290   -2.0070 C   0  0  0  0  0  0  0  0  0  0  0  0
    5.0880    0.2090   -3.0120 H   0  0  0  0  0  0  0  0  0  0  0  0
    6.4830    0.4970   -1.9640 H   0  0  0  0  0  0  0  0  0  0  0  0
    5.1010    1.5760   -1.9030 H   0  0  0  0  0  0  0  0  0  0  0  0
    5.3090   -1.8010   -1.2760 C   0  0  0  0  0  0  0  0  0  0  0  0
    4.8600   -2.1800   -2.2010 H   0  0  0  0  0  0  0  0  0  0  0  0
    5.1320   -2.5300   -0.4790 H   0  0  0  0  0  0  0  0  0  0  0  0
    6.3930   -1.7820   -1.4410 H   0  0  0  0  0  0  0  0  0  0  0  0
    8.6060   -0.7910    1.8310 C   0  0  0  0  0  0  0  0  0  0  0  0
    9.1230   -0.9220    0.8770 H   0  0  0  0  0  0  0  0  0  0  0  0
    8.3300   -1.7600    2.2550 H   0  0  0  0  0  0  0  0  0  0  0  0
    9.2820   -0.2870    2.5280 H   0  0  0  0  0  0  0  0  0  0  0  0
   -7.0080   -2.4130    1.6800 C   0  0  0  0  0  0  0  0  0  0  0  0
   -7.4070   -2.6790    0.6980 H   0  0  0  0  0  0  0  0  0  0  0  0
   -7.2480   -1.3800    1.9420 H   0  0  0  0  0  0  0  0  0  0  0  0
   -7.4860   -3.0670    2.4150 H   0  0  0  0  0  0  0  0  0  0  0  0
   -4.5620    4.0550    1.3540 C   0  0  0  0  0  0  0  0  0  0  0  0
   -3.4910    4.2680    1.3820 H   0  0  0  0  0  0  0  0  0  0  0  0
   -5.0020    4.3430    2.3130 H   0  0  0  0  0  0  0  0  0  0  0  0
   -5.0410    4.6280    0.5570 H   0  0  0  0  0  0  0  0  0  0  0  0
   -1.8530    1.0490   -1.2080 H   0  0  0  0  0  0  0  0  0  0  0  0
    0.7280    1.4660   -1.1500 H   0  0  0  0  0  0  0  0  0  0  0  0
    2.9430   -0.0360   -2.0390 H   0  0  0  0  0  0  0  0  0  0  0  0
   -3.6960    0.2970    1.0650 H   0  0  0  0  0  0  0  0  0  0  0  0
   -3.5180    2.7310   -0.6090 H   0  0  0  0  0  0  0  0  0  0  0  0
    5.4820    1.1550    0.4510 H   0  0  0  0  0  0  0  0  0  0  0  0
  1  2  1  0  0  0  0
  1  4  1  0  0  0  0
  1 15  1  0  0  0  0
  1 53  1  0  0  0  0
  2  5  1  0  0  0  0
  2 12  1  0  0  0  0
  2 57  1  0  0  0  0
  3  5  1  0  0  0  0
  3  6  1  0  0  0  0
  3 21  1  0  0  0  0
  3 61  1  0  0  0  0
  4  7  1  0  0  0  0
  4 18  1  0  0  0  0
  4 85  1  0  0  0  0
  5 24  1  0  0  0  0
  5 86  1  0  0  0  0
  6  8  1  0  0  0  0
  6 27  1  0  0  0  0
  6 87  1  0  0  0  0
  7  9  1  0  0  0  0
  7 10  1  0  0  0  0
  7 88  1  0  0  0  0
  8 11  1  0  0  0  0
  8 65  1  0  0  0  0
  8 69  1  0  0  0  0
  9 37  1  0  0  0  0
  9 40  1  0  0  0  0
  9 46  1  0  0  0  0
 10 31  1  0  0  0  0
 10 35  1  0  0  0  0
 10 89  1  0  0  0  0
 11 30  1  0  0  0  0
 11 43  1  0  0  0  0
 11 90  1  0  0  0  0
 12 13  1  0  0  0  0
 12 14  1  0  0  0  0
 12 27  1  0  0  0  0
 15 16  1  0  0  0  0
 15 17  1  0  0  0  0
 15 37  1  0  0  0  0
 18 19  1  0  0  0  0
 18 20  1  0  0  0  0
 18 24  1  0  0  0  0
 21 22  1  0  0  0  0
 21 23  1  0  0  0  0
 21 43  1  0  0  0  0
 24 25  1  0  0  0  0
 24 26  1  0  0  0  0
 27 28  1  0  0  0  0
 27 29  1  0  0  0  0
 30 34  1  0  0  0  0
 31 32  1  0  0  0  0
 31 33  1  0  0  0  0
 31 40  1  0  0  0  0
 34 50  2  0  0  0  0
 34 73  1  0  0  0  0
 35 52  2  0  0  0  0
 35 81  1  0  0  0  0
 36 49  1  0  0  0  0
 36 51  2  0  0  0  0
 36 77  1  0  0  0  0
 37 38  1  0  0  0  0
 37 39  1  0  0  0  0
 40 41  1  0  0  0  0
 40 42  1  0  0  0  0
 43 44  1  0  0  0  0
 43 45  1  0  0  0  0
 46 47  1  0  0  0  0
 46 48  1  0  0  0  0
 46 49  1  0  0  0  0
 53 54  1  0  0  0  0
 53 55  1  0  0  0  0
 53 56  1  0  0  0  0
 57 58  1  0  0  0  0
 57 59  1  0  0  0  0
 57 60  1  0  0  0  0
 61 62  1  0  0  0  0
 61 63  1  0  0  0  0
 61 64  1  0  0  0  0
 65 66  1  0  0  0  0
 65 67  1  0  0  0  0
 65 68  1  0  0  0  0
 69 70  1  0  0  0  0
 69 71  1  0  0  0  0
 69 72  1  0  0  0  0
 73 74  1  0  0  0  0
 73 75  1  0  0  0  0
 73 76  1  0  0  0  0
 77 78  1  0  0  0  0
 77 79  1  0  0  0  0
 77 80  1  0  0  0  0
 81 82  1  0  0  0  0
 81 83  1  0  0  0  0
 81 84  1  0  0  0  0
M  END
>  <IDNUMBER>
AE-641/20167001

>  <NAME>
1-acetyl-3a-[(acetyloxy)methyl]-5a,5b,8,8,11a-pentamethylicosahydro-1H-cyclopenta[a]chrysen-9-yl acetate

>  <ADD_INFO>
http://www.specs.net/enter.php?specsid=AE-641/20167001

>  <H_ACCEPTORS>
5

>  <H_DONORS>
0

>  <ROTATABLE_BONDS>
6

>  <LOGP>
7.3200002

>  <LOGS>
-9.3000002

>  <TPSA>
69.669998

>  <PRICE>
N05

$$$$
AE-641/20167039
  MOE2011           3D

 50 53  0  0  1  0  0  0  0  0999 V2000
   -1.7570    0.4200   -0.0210 C   0  0  2  0  0  0  0  0  0  0  0  0
    0.4200   -0.8130   -0.9490 C   0  0  3  0  0  0  0  0  0  0  0  0
   -0.4610    0.4770   -0.9260 C   0  0  3  0  0  0  0  0  0  0  0  0
    2.3990    0.4840    0.1220 C   0  0  2  0  0  0  0  0  0  0  0  0
    1.5350   -0.8180    0.1230 C   0  0  3  0  0  0  0  0  0  0  0  0
   -2.5340   -0.8760   -0.3730 C   0  0  1  0  0  0  0  0  0  0  0  0
   -1.6270   -2.0640   -0.1280 C   0  0  0  0  0  0  0  0  0  0  0  0
   -0.3970   -2.1140   -0.9960 C   0  0  0  0  0  0  0  0  0  0  0  0
    0.1980   -2.9900   -0.7190 H   0  0  0  0  0  0  0  0  0  0  0  0
   -0.7470   -2.2880   -2.0210 H   0  0  0  0  0  0  0  0  0  0  0  0
    1.8760    1.5440   -0.8700 C   0  0  0  0  0  0  0  0  0  0  0  0
    2.4020    2.4950   -0.7220 H   0  0  0  0  0  0  0  0  0  0  0  0
    2.0910    1.2430   -1.9030 H   0  0  0  0  0  0  0  0  0  0  0  0
    0.3730    1.7660   -0.7350 C   0  0  0  0  0  0  0  0  0  0  0  0
    0.0600    2.5020   -1.4870 H   0  0  0  0  0  0  0  0  0  0  0  0
    0.1760    2.2440    0.2270 H   0  0  0  0  0  0  0  0  0  0  0  0
   -2.6850    1.6220   -0.3680 C   0  0  0  0  0  0  0  0  0  0  0  0
   -2.2080    2.5700   -0.0940 H   0  0  0  0  0  0  0  0  0  0  0  0
   -2.8350    1.6550   -1.4560 H   0  0  0  0  0  0  0  0  0  0  0  0
    2.5410   -1.9790   -0.0720 C   0  0  0  0  0  0  0  0  0  0  0  0
    2.3020   -2.8350    0.5670 H   0  0  0  0  0  0  0  0  0  0  0  0
    2.5410   -2.3300   -1.1110 H   0  0  0  0  0  0  0  0  0  0  0  0
    3.8070    0.0040   -0.3090 C   0  0  2  0  0  0  0  0  0  0  0  0
   -3.8770   -1.0100    0.3400 C   0  0  0  0  0  0  0  0  0  0  0  0
   -3.7730   -1.1440    1.4220 H   0  0  0  0  0  0  0  0  0  0  0  0
   -4.4130   -1.8870   -0.0410 H   0  0  0  0  0  0  0  0  0  0  0  0
   -1.8850   -2.9510    0.6820 O   0  0  0  0  0  0  0  0  0  0  0  0
   -4.7180    0.2180    0.0810 C   0  0  0  0  0  0  0  0  0  0  0  0
    3.9040   -1.4010    0.2600 C   0  0  0  0  0  0  0  0  0  0  0  0
    4.7200   -1.9730   -0.1940 H   0  0  0  0  0  0  0  0  0  0  0  0
    4.0850   -1.3880    1.3410 H   0  0  0  0  0  0  0  0  0  0  0  0
   -5.9130    0.1290   -0.1980 O   0  0  0  0  0  0  0  0  0  0  0  0
   -4.0590    1.5610    0.2970 C   0  0  0  0  0  0  0  0  0  0  0  0
   -4.7010    2.3400   -0.1290 H   0  0  0  0  0  0  0  0  0  0  0  0
   -3.9920    1.7430    1.3740 H   0  0  0  0  0  0  0  0  0  0  0  0
   -1.4280    0.4670    1.4920 C   0  0  0  0  0  0  0  0  0  0  0  0
   -0.9400    1.4020    1.7770 H   0  0  0  0  0  0  0  0  0  0  0  0
   -0.7850   -0.3570    1.8030 H   0  0  0  0  0  0  0  0  0  0  0  0
   -2.3240    0.4000    2.1150 H   0  0  0  0  0  0  0  0  0  0  0  0
    2.4350    1.0850    1.5470 C   0  0  0  0  0  0  0  0  0  0  0  0
    1.4320    1.3200    1.9120 H   0  0  0  0  0  0  0  0  0  0  0  0
    3.0180    2.0120    1.5760 H   0  0  0  0  0  0  0  0  0  0  0  0
    2.8810    0.3910    2.2680 H   0  0  0  0  0  0  0  0  0  0  0  0
    4.8440    0.8360    0.1700 O   0  0  0  0  0  0  0  0  0  0  0  0
    5.6890    0.4100   -0.0550 H   0  0  0  0  0  0  0  0  0  0  0  0
   -2.7510   -0.8770   -1.4520 H   0  0  0  0  0  0  0  0  0  0  0  0
    0.9520   -0.7910   -1.9130 H   0  0  0  0  0  0  0  0  0  0  0  0
   -0.8430    0.5420   -1.9590 H   0  0  0  0  0  0  0  0  0  0  0  0
    1.0820   -0.9580    1.1090 H   0  0  0  0  0  0  0  0  0  0  0  0
    3.8860   -0.0420   -1.4030 H   0  0  0  0  0  0  0  0  0  0  0  0
  1  3  1  0  0  0  0
  1  6  1  0  0  0  0
  1 17  1  0  0  0  0
  1 36  1  0  0  0  0
  2  3  1  0  0  0  0
  2  5  1  0  0  0  0
  2  8  1  0  0  0  0
  2 47  1  0  0  0  0
  3 14  1  0  0  0  0
  3 48  1  0  0  0  0
  4  5  1  0  0  0  0
  4 11  1  0  0  0  0
  4 23  1  0  0  0  0
  4 40  1  0  0  0  0
  5 20  1  0  0  0  0
  5 49  1  0  0  0  0
  6  7  1  0  0  0  0
  6 24  1  0  0  0  0
  6 46  1  0  0  0  0
  7  8  1  0  0  0  0
  7 27  2  0  0  0  0
  8  9  1  0  0  0  0
  8 10  1  0  0  0  0
 11 12  1  0  0  0  0
 11 13  1  0  0  0  0
 11 14  1  0  0  0  0
 14 15  1  0  0  0  0
 14 16  1  0  0  0  0
 17 18  1  0  0  0  0
 17 19  1  0  0  0  0
 17 33  1  0  0  0  0
 20 21  1  0  0  0  0
 20 22  1  0  0  0  0
 20 29  1  0  0  0  0
 23 29  1  0  0  0  0
 23 44  1  0  0  0  0
 23 50  1  0  0  0  0
 24 25  1  0  0  0  0
 24 26  1  0  0  0  0
 24 28  1  0  0  0  0
 28 32  2  0  0  0  0
 28 33  1  0  0  0  0
 29 30  1  0  0  0  0
 29 31  1  0  0  0  0
 33 34  1  0  0  0  0
 33 35  1  0  0  0  0
 36 37  1  0  0  0  0
 36 38  1  0  0  0  0
 36 39  1  0  0  0  0
 40 41  1  0  0  0  0
 40 42  1  0  0  0  0
 40 43  1  0  0  0  0
 44 45  1  0  0  0  0
M  END
>  <IDNUMBER>
AE-641/20167039

>  <NAME>
(5S,10R,13S,17S)-17-hydroxy-10,13-dimethyldodecahydro-1H-cyclopenta[a]phenanthrene-3,6(2H,4H)-dione

>  <ADD_INFO>
http://www.specs.net/enter.php?specsid=AE-641/20167039

>  <H_ACCEPTORS>
3

>  <H_DONORS>
1

>  <ROTATABLE_BONDS>
0

>  <LOGP>
1.72

>  <LOGS>
-2.3800001

>  <TPSA>
54.369999

>  <PRICE>
N04

$$$$
AE-646/31213037
  MOE2011           3D

 22 22  0  0  0  0  0  0  0  0999 V2000
   -1.3330   -1.1950   -0.5510 C   0  0  0  0  0  0  0  0  0  0  0  0
    0.0800   -0.7930   -0.4050 C   0  0  0  0  0  0  0  0  0  0  0  0
   -1.6680   -2.3610   -0.3870 O   0  0  0  0  0  0  0  0  0  0  0  0
    0.7200   -0.0640   -1.4140 C   0  0  0  0  0  0  0  0  0  0  0  0
    0.1830    0.2350   -2.3110 H   0  0  0  0  0  0  0  0  0  0  0  0
    0.7870   -1.2110    0.7280 C   0  0  0  0  0  0  0  0  0  0  0  0
    0.2960   -1.8040    1.4960 H   0  0  0  0  0  0  0  0  0  0  0  0
   -2.2000   -0.2230   -0.9300 O   0  0  0  0  0  0  0  0  0  0  0  0
    2.7580   -0.1230   -0.1280 C   0  0  0  0  0  0  0  0  0  0  0  0
    2.0640    0.2770   -1.2680 C   0  0  0  0  0  0  0  0  0  0  0  0
    2.5720    0.8480   -2.0400 H   0  0  0  0  0  0  0  0  0  0  0  0
    2.1330   -0.8680    0.8700 C   0  0  0  0  0  0  0  0  0  0  0  0
    2.6730   -1.1910    1.7550 H   0  0  0  0  0  0  0  0  0  0  0  0
    4.0720    0.2330   -0.0310 O   0  0  0  0  0  0  0  0  0  0  0  0
    4.4330   -0.1190    0.8000 H   0  0  0  0  0  0  0  0  0  0  0  0
   -2.1620    1.0840   -0.3180 C   0  0  0  0  0  0  0  0  0  0  0  0
   -1.1520    1.5020   -0.2970 H   0  0  0  0  0  0  0  0  0  0  0  0
   -2.7690    1.7430   -0.9470 H   0  0  0  0  0  0  0  0  0  0  0  0
   -2.7570    1.0240    1.0770 C   0  0  0  0  0  0  0  0  0  0  0  0
   -2.1620    0.3770    1.7290 H   0  0  0  0  0  0  0  0  0  0  0  0
   -3.7680    0.6050    1.0470 H   0  0  0  0  0  0  0  0  0  0  0  0
   -2.8010    2.0220    1.5230 H   0  0  0  0  0  0  0  0  0  0  0  0
  1  2  1  0  0  0  0
  1  3  2  0  0  0  0
  1  8  1  0  0  0  0
  2  4  2  0  0  0  0
  2  6  1  0  0  0  0
  4  5  1  0  0  0  0
  4 10  1  0  0  0  0
  6  7  1  0  0  0  0
  6 12  2  0  0  0  0
  8 16  1  0  0  0  0
  9 10  2  0  0  0  0
  9 12  1  0  0  0  0
  9 14  1  0  0  0  0
 10 11  1  0  0  0  0
 12 13  1  0  0  0  0
 14 15  1  0  0  0  0
 16 17  1  0  0  0  0
 16 18  1  0  0  0  0
 16 19  1  0  0  0  0
 19 20  1  0  0  0  0
 19 21  1  0  0  0  0
 19 22  1  0  0  0  0
M  END
>  <IDNUMBER>
AE-646/31213037

>  <NAME>
Ethylparaben

>  <ADD_INFO>
http://www.specs.net/enter.php?specsid=AE-646/31213037

>  <H_ACCEPTORS>
2

>  <H_DONORS>
1

>  <ROTATABLE_BONDS>
3

>  <LOGP>
2.47

>  <LOGS>
-1.9400001

>  <TPSA>
46.529999

>  <PRICE>
N07

$$$$
AE-765/20006045
  MOE2011           3D

 52 54  0  0  1  0  0  0  0  0999 V2000
    1.2820   -0.7600   -0.3490 C   0  0  0  0  0  0  0  0  0  0  0  0
    3.2550    0.5650    0.0510 C   0  0  0  0  0  0  0  0  0  0  0  0
    2.5960   -0.6730    0.1070 C   0  0  0  0  0  0  0  0  0  0  0  0
    0.3460   -1.8760   -0.1110 C   0  0  0  0  0  0  0  0  0  0  0  0
    2.5430    1.7250   -0.3210 C   0  0  0  0  0  0  0  0  0  0  0  0
    0.6880    0.3930   -0.9150 C   0  0  0  0  0  0  0  0  0  0  0  0
   -0.3040    0.2890   -1.3490 H   0  0  0  0  0  0  0  0  0  0  0  0
    1.2260    1.6660   -0.7710 C   0  0  0  0  0  0  0  0  0  0  0  0
    0.3450   -3.0950   -0.7800 C   0  0  0  0  0  0  0  0  0  0  0  0
   -0.8060   -1.5260    0.6160 C   0  0  0  0  0  0  0  0  0  0  0  0
   -0.8010   -0.6090    1.1990 H   0  0  0  0  0  0  0  0  0  0  0  0
   -0.8330   -3.8450   -0.8640 C   0  0  0  0  0  0  0  0  0  0  0  0
   -0.8350   -4.7790   -1.4180 H   0  0  0  0  0  0  0  0  0  0  0  0
    4.5560    0.7840    0.4390 O   0  0  0  0  0  0  0  0  0  0  0  0
    3.1990   -1.8070    0.5860 O   0  0  0  0  0  0  0  0  0  0  0  0
   -2.0310   -2.1370    0.3650 C   0  0  0  0  0  0  0  0  0  0  0  0
    3.1690    2.9410   -0.2300 O   0  0  0  0  0  0  0  0  0  0  0  0
    4.0570    2.7420    0.1260 H   0  0  0  0  0  0  0  0  0  0  0  0
   -2.0360   -3.3350   -0.3490 C   0  0  0  0  0  0  0  0  0  0  0  0
   -2.9700   -3.8500   -0.5580 H   0  0  0  0  0  0  0  0  0  0  0  0
    1.4520   -3.5670   -1.4250 O   0  0  0  0  0  0  0  0  0  0  0  0
    2.2160   -3.0510   -1.1070 H   0  0  0  0  0  0  0  0  0  0  0  0
   -3.2680   -1.2940    0.6230 C   0  0  0  0  0  0  0  0  0  0  0  0
   -4.1620   -1.9270    0.6560 H   0  0  0  0  0  0  0  0  0  0  0  0
   -3.1790   -0.8150    1.6060 H   0  0  0  0  0  0  0  0  0  0  0  0
   -3.3840   -0.2410   -0.5100 C   0  0  0  0  0  0  0  0  0  0  0  0
   -4.0680   -0.6700   -1.2560 H   0  0  0  0  0  0  0  0  0  0  0  0
   -2.4370   -0.1090   -1.0390 H   0  0  0  0  0  0  0  0  0  0  0  0
   -3.9100    1.1520   -0.1440 C   0  0  1  0  0  0  0  0  0  0  0  0
   -5.2110    0.9790    0.4260 O   0  0  0  0  0  0  0  0  0  0  0  0
   -5.5830    1.8650    0.5740 H   0  0  0  0  0  0  0  0  0  0  0  0
    0.3730    2.8900   -1.0470 C   0  0  0  0  0  0  0  0  0  0  0  0
    0.6940    3.7020   -0.3820 H   0  0  0  0  0  0  0  0  0  0  0  0
    0.5710    3.2150   -2.0750 H   0  0  0  0  0  0  0  0  0  0  0  0
    5.4830   -0.1300   -0.1470 C   0  0  0  0  0  0  0  0  0  0  0  0
    6.4480    0.3800   -0.2210 H   0  0  0  0  0  0  0  0  0  0  0  0
    5.1900   -0.4370   -1.1570 H   0  0  0  0  0  0  0  0  0  0  0  0
    5.6200   -1.0020    0.5000 H   0  0  0  0  0  0  0  0  0  0  0  0
    3.1630   -1.8160    2.0160 C   0  0  0  0  0  0  0  0  0  0  0  0
    3.5720   -2.7730    2.3520 H   0  0  0  0  0  0  0  0  0  0  0  0
    2.1380   -1.7350    2.3930 H   0  0  0  0  0  0  0  0  0  0  0  0
    3.7840   -1.0170    2.4330 H   0  0  0  0  0  0  0  0  0  0  0  0
   -3.0820    2.0370    0.8060 C   0  0  0  0  0  0  0  0  0  0  0  0
   -3.5760    3.0180    0.8510 H   0  0  0  0  0  0  0  0  0  0  0  0
   -3.1810    1.6410    1.8270 H   0  0  0  0  0  0  0  0  0  0  0  0
   -1.1730    2.7340   -0.8670 C   0  0  0  0  0  0  0  0  0  0  0  0
   -1.6390    3.7050   -1.0750 H   0  0  0  0  0  0  0  0  0  0  0  0
   -1.5640    2.0440   -1.6210 H   0  0  0  0  0  0  0  0  0  0  0  0
   -1.5870    2.2820    0.5420 C   0  0  0  0  0  0  0  0  0  0  0  0
   -1.2470    3.0450    1.2550 H   0  0  0  0  0  0  0  0  0  0  0  0
   -1.0510    1.3800    0.8230 H   0  0  0  0  0  0  0  0  0  0  0  0
   -4.0500    1.7040   -1.0820 H   0  0  0  0  0  0  0  0  0  0  0  0
  1  3  1  0  0  0  0
  1  4  1  0  0  0  0
  1  6  2  0  0  0  0
  2  3  2  0  0  0  0
  2  5  1  0  0  0  0
  2 14  1  0  0  0  0
  3 15  1  0  0  0  0
  4  9  2  0  0  0  0
  4 10  1  0  0  0  0
  5  8  2  0  0  0  0
  5 17  1  0  0  0  0
  6  7  1  0  0  0  0
  6  8  1  0  0  0  0
  8 32  1  0  0  0  0
  9 12  1  0  0  0  0
  9 21  1  0  0  0  0
 10 11  1  0  0  0  0
 10 16  2  0  0  0  0
 12 13  1  0  0  0  0
 12 19  2  0  0  0  0
 14 35  1  0  0  0  0
 15 39  1  0  0  0  0
 16 19  1  0  0  0  0
 16 23  1  0  0  0  0
 17 18  1  0  0  0  0
 19 20  1  0  0  0  0
 21 22  1  0  0  0  0
 23 24  1  0  0  0  0
 23 25  1  0  0  0  0
 23 26  1  0  0  0  0
 26 27  1  0  0  0  0
 26 28  1  0  0  0  0
 26 29  1  0  0  0  0
 29 30  1  0  0  0  0
 29 43  1  0  0  0  0
 29 52  1  0  0  0  0
 30 31  1  0  0  0  0
 32 33  1  0  0  0  0
 32 34  1  0  0  0  0
 32 46  1  0  0  0  0
 35 36  1  0  0  0  0
 35 37  1  0  0  0  0
 35 38  1  0  0  0  0
 39 40  1  0  0  0  0
 39 41  1  0  0  0  0
 39 42  1  0  0  0  0
 43 44  1  0  0  0  0
 43 45  1  0  0  0  0
 43 49  1  0  0  0  0
 46 47  1  0  0  0  0
 46 48  1  0  0  0  0
 46 49  1  0  0  0  0
 49 50  1  0  0  0  0
 49 51  1  0  0  0  0
M  END
>  <IDNUMBER>
AE-765/20006045

>  <NAME>
Myricanol

>  <ADD_INFO>
http://www.specs.net/enter.php?specsid=AE-765/20006045

>  <H_ACCEPTORS>
1

>  <H_DONORS>
3

>  <ROTATABLE_BONDS>
2

>  <LOGP>
4.0900002

>  <LOGS>
-5.3200002

>  <TPSA>
79.150002

>  <PRICE>
N07

$$$$
AE-842/20720002
  MOE2011           3D

 88 91  0  0  1  0  0  0  0  0999 V2000
   -3.8750   -0.2320    0.2350 C   0  0  2  0  0  0  0  0  0  0  0  0
   -2.7780    0.9100    0.2160 C   0  0  1  0  0  0  0  0  0  0  0  0
    1.3070   -0.8900   -0.0760 C   0  0  1  0  0  0  0  0  0  0  0  0
   -3.3150   -1.3810    1.1010 C   0  0  0  0  0  0  0  0  0  0  0  0
   -1.2870   -1.1460   -0.3950 C   0  0  3  0  0  0  0  0  0  0  0  0
   -1.3120    0.3080    0.1330 C   0  0  3  0  0  0  0  0  0  0  0  0
    0.1290   -1.5760   -0.8110 C   0  0  3  0  0  0  0  0  0  0  0  0
   -2.0290   -2.0530    0.6000 C   0  0  0  0  0  0  0  0  0  0  0  0
   -1.3870   -2.2740    1.4580 H   0  0  0  0  0  0  0  0  0  0  0  0
   -2.3010   -3.0020    0.1260 H   0  0  0  0  0  0  0  0  0  0  0  0
    2.4950   -1.5880   -0.8220 C   0  0  2  0  0  0  0  0  0  0  0  0
   -4.0370   -0.7300   -1.1310 O   0  0  0  0  0  0  0  0  0  0  0  0
   -5.2310    0.3590    0.6640 C   0  0  0  0  0  0  0  0  0  0  0  0
   -6.0400   -0.3630    0.5110 H   0  0  0  0  0  0  0  0  0  0  0  0
   -5.2290    0.5520    1.7440 H   0  0  0  0  0  0  0  0  0  0  0  0
    1.1980    0.6400   -0.3130 C   0  0  0  0  0  0  0  0  0  0  0  0
    1.6210    1.1810    0.5430 H   0  0  0  0  0  0  0  0  0  0  0  0
    1.8030    0.9410   -1.1770 H   0  0  0  0  0  0  0  0  0  0  0  0
   -0.2400    1.1640   -0.5580 C   0  0  0  0  0  0  0  0  0  0  0  0
   -0.4210    1.1780   -1.6400 H   0  0  0  0  0  0  0  0  0  0  0  0
   -0.2920    2.2050   -0.2200 H   0  0  0  0  0  0  0  0  0  0  0  0
   -3.1200    1.8780   -0.9450 C   0  0  0  0  0  0  0  0  0  0  0  0
   -2.6850    2.8670   -0.7530 H   0  0  0  0  0  0  0  0  0  0  0  0
   -2.6620    1.5260   -1.8780 H   0  0  0  0  0  0  0  0  0  0  0  0
    0.4890   -3.0530   -0.8310 C   0  0  0  0  0  0  0  0  0  0  0  0
    0.2310   -3.5510    0.1090 H   0  0  0  0  0  0  0  0  0  0  0  0
   -0.0160   -3.5880   -1.6410 H   0  0  0  0  0  0  0  0  0  0  0  0
    2.0140   -3.0550   -1.0170 C   0  0  0  0  0  0  0  0  0  0  0  0
    2.2780   -3.3980   -2.0250 H   0  0  0  0  0  0  0  0  0  0  0  0
    2.4620   -3.7620   -0.3160 H   0  0  0  0  0  0  0  0  0  0  0  0
   -3.9320   -1.7160    2.1950 N   0  0  0  0  0  0  0  0  0  0  0  0
   -4.8090   -1.8190   -1.3990 C   0  0  0  0  0  0  0  0  0  0  0  0
   -8.0550    1.7870    0.0470 C   0  0  0  0  0  0  0  0  0  0  0  0
   -5.5720    1.6800   -0.0630 C   0  0  3  0  0  0  0  0  0  0  0  0
   -6.9040    1.5880   -0.6390 O   0  0  0  0  0  0  0  0  0  0  0  0
   -5.3970   -2.5060   -0.5790 O   0  0  0  0  0  0  0  0  0  0  0  0
   -9.1460    1.6490   -0.4990 O   0  0  0  0  0  0  0  0  0  0  0  0
    3.9710   -1.4700   -0.3400 C   0  0  3  0  0  0  0  0  0  0  0  0
   -4.6260    2.0390   -1.2190 C   0  0  0  0  0  0  0  0  0  0  0  0
   -4.8930    1.4350   -2.0980 H   0  0  0  0  0  0  0  0  0  0  0  0
   -4.8280    3.0690   -1.5440 H   0  0  0  0  0  0  0  0  0  0  0  0
   -2.7860    1.7390    1.5420 C   0  0  0  0  0  0  0  0  0  0  0  0
   -1.9370    2.4320    1.5720 H   0  0  0  0  0  0  0  0  0  0  0  0
   -2.7090    1.0870    2.4190 H   0  0  0  0  0  0  0  0  0  0  0  0
   -3.6790    2.3530    1.6690 H   0  0  0  0  0  0  0  0  0  0  0  0
    1.3480   -1.1950    1.4360 C   0  0  0  0  0  0  0  0  0  0  0  0
    2.1310   -0.6110    1.9280 H   0  0  0  0  0  0  0  0  0  0  0  0
    1.5380   -2.2530    1.6420 H   0  0  0  0  0  0  0  0  0  0  0  0
    0.4230   -0.9440    1.9550 H   0  0  0  0  0  0  0  0  0  0  0  0
   -3.2930   -2.7790    2.8380 O   0  0  0  0  0  0  0  0  0  0  0  0
   -3.8910   -2.9530    3.5870 H   0  0  0  0  0  0  0  0  0  0  0  0
    5.9710    0.1460   -0.1750 C   0  0  0  0  0  0  0  0  0  0  0  0
    6.2680   -0.2490    0.8010 H   0  0  0  0  0  0  0  0  0  0  0  0
    6.4870   -0.4420   -0.9420 H   0  0  0  0  0  0  0  0  0  0  0  0
   -4.8260   -2.0700   -2.8750 C   0  0  0  0  0  0  0  0  0  0  0  0
   -3.8140   -2.2970   -3.2230 H   0  0  0  0  0  0  0  0  0  0  0  0
   -5.2250   -1.1960   -3.3960 H   0  0  0  0  0  0  0  0  0  0  0  0
   -5.4710   -2.9260   -3.0910 H   0  0  0  0  0  0  0  0  0  0  0  0
   -7.9440    2.1980    1.4840 C   0  0  0  0  0  0  0  0  0  0  0  0
   -7.4590    3.1730    1.5660 H   0  0  0  0  0  0  0  0  0  0  0  0
   -7.4200    1.4390    2.0670 H   0  0  0  0  0  0  0  0  0  0  0  0
   -8.9510    2.2940    1.9030 H   0  0  0  0  0  0  0  0  0  0  0  0
    4.4530   -0.0020   -0.3470 C   0  0  0  0  0  0  0  0  0  0  0  0
    4.1680    0.4620   -1.2990 H   0  0  0  0  0  0  0  0  0  0  0  0
    3.9510    0.5580    0.4490 H   0  0  0  0  0  0  0  0  0  0  0  0
    4.3160   -2.1560    0.9880 C   0  0  0  0  0  0  0  0  0  0  0  0
    5.3930   -2.3560    1.0400 H   0  0  0  0  0  0  0  0  0  0  0  0
    3.8230   -3.1210    1.1120 H   0  0  0  0  0  0  0  0  0  0  0  0
    4.0730   -1.5320    1.8520 H   0  0  0  0  0  0  0  0  0  0  0  0
    6.3980    1.6150   -0.2790 C   0  0  0  0  0  0  0  0  0  0  0  0
    5.9240    2.1880    0.5280 H   0  0  0  0  0  0  0  0  0  0  0  0
    6.0180    2.0270   -1.2220 H   0  0  0  0  0  0  0  0  0  0  0  0
    7.9250    1.8160   -0.2320 C   0  0  0  0  0  0  0  0  0  0  0  0
    8.3800    1.2350   -1.0450 H   0  0  0  0  0  0  0  0  0  0  0  0
    8.2600    3.2910   -0.4660 C   0  0  0  0  0  0  0  0  0  0  0  0
    7.8370    3.9240    0.3210 H   0  0  0  0  0  0  0  0  0  0  0  0
    7.8640    3.6330   -1.4280 H   0  0  0  0  0  0  0  0  0  0  0  0
    9.3440    3.4470   -0.4790 H   0  0  0  0  0  0  0  0  0  0  0  0
    8.5380    1.3510    1.0890 C   0  0  0  0  0  0  0  0  0  0  0  0
    8.0640    1.8470    1.9430 H   0  0  0  0  0  0  0  0  0  0  0  0
    9.6100    1.5760    1.1200 H   0  0  0  0  0  0  0  0  0  0  0  0
    8.4320    0.2700    1.2200 H   0  0  0  0  0  0  0  0  0  0  0  0
   -1.8420   -1.1740   -1.3400 H   0  0  0  0  0  0  0  0  0  0  0  0
   -0.9820    0.2500    1.1760 H   0  0  0  0  0  0  0  0  0  0  0  0
    0.2030   -1.2530   -1.8660 H   0  0  0  0  0  0  0  0  0  0  0  0
    2.5060   -1.1590   -1.8380 H   0  0  0  0  0  0  0  0  0  0  0  0
   -5.5550    2.5140    0.6450 H   0  0  0  0  0  0  0  0  0  0  0  0
    4.5600   -1.9990   -1.1050 H   0  0  0  0  0  0  0  0  0  0  0  0
  1  2  1  0  0  0  0
  1  4  1  0  0  0  0
  1 12  1  0  0  0  0
  1 13  1  0  0  0  0
  2  6  1  0  0  0  0
  2 22  1  0  0  0  0
  2 42  1  0  0  0  0
  3  7  1  0  0  0  0
  3 11  1  0  0  0  0
  3 16  1  0  0  0  0
  3 46  1  0  0  0  0
  4  8  1  0  0  0  0
  4 31  2  0  0  0  0
  5  6  1  0  0  0  0
  5  7  1  0  0  0  0
  5  8  1  0  0  0  0
  5 83  1  0  0  0  0
  6 19  1  0  0  0  0
  6 84  1  0  0  0  0
  7 25  1  0  0  0  0
  7 85  1  0  0  0  0
  8  9  1  0  0  0  0
  8 10  1  0  0  0  0
 11 28  1  0  0  0  0
 11 38  1  0  0  0  0
 11 86  1  0  0  0  0
 12 32  1  0  0  0  0
 13 14  1  0  0  0  0
 13 15  1  0  0  0  0
 13 34  1  0  0  0  0
 16 17  1  0  0  0  0
 16 18  1  0  0  0  0
 16 19  1  0  0  0  0
 19 20  1  0  0  0  0
 19 21  1  0  0  0  0
 22 23  1  0  0  0  0
 22 24  1  0  0  0  0
 22 39  1  0  0  0  0
 25 26  1  0  0  0  0
 25 27  1  0  0  0  0
 25 28  1  0  0  0  0
 28 29  1  0  0  0  0
 28 30  1  0  0  0  0
 31 50  1  0  0  0  0
 32 36  2  0  0  0  0
 32 55  1  0  0  0  0
 33 35  1  0  0  0  0
 33 37  2  0  0  0  0
 33 59  1  0  0  0  0
 34 35  1  0  0  0  0
 34 39  1  0  0  0  0
 34 87  1  0  0  0  0
 38 63  1  0  0  0  0
 38 66  1  0  0  0  0
 38 88  1  0  0  0  0
 39 40  1  0  0  0  0
 39 41  1  0  0  0  0
 42 43  1  0  0  0  0
 42 44  1  0  0  0  0
 42 45  1  0  0  0  0
 46 47  1  0  0  0  0
 46 48  1  0  0  0  0
 46 49  1  0  0  0  0
 50 51  1  0  0  0  0
 52 53  1  0  0  0  0
 52 54  1  0  0  0  0
 52 63  1  0  0  0  0
 52 70  1  0  0  0  0
 55 56  1  0  0  0  0
 55 57  1  0  0  0  0
 55 58  1  0  0  0  0
 59 60  1  0  0  0  0
 59 61  1  0  0  0  0
 59 62  1  0  0  0  0
 63 64  1  0  0  0  0
 63 65  1  0  0  0  0
 66 67  1  0  0  0  0
 66 68  1  0  0  0  0
 66 69  1  0  0  0  0
 70 71  1  0  0  0  0
 70 72  1  0  0  0  0
 70 73  1  0  0  0  0
 73 74  1  0  0  0  0
 73 75  1  0  0  0  0
 73 79  1  0  0  0  0
 75 76  1  0  0  0  0
 75 77  1  0  0  0  0
 75 78  1  0  0  0  0
 79 80  1  0  0  0  0
 79 81  1  0  0  0  0
 79 82  1  0  0  0  0
M  END
>  <IDNUMBER>
AE-842/20720002

>  <NAME>
Guggulsterol IV, derivative of

>  <ADD_INFO>
http://www.specs.net/enter.php?specsid=AE-842/20720002

>  <H_ACCEPTORS>
4

>  <H_DONORS>
1

>  <ROTATABLE_BONDS>
9

>  <LOGP>
7.0700002

>  <LOGS>
-9.0100002

>  <TPSA>
85.190002

>  <PRICE>
N05

$$$$
AE-842/20720022
  MOE2011           3D

 75 78  0  0  1  0  0  0  0  0999 V2000
    0.6320    0.6000    0.3170 C   0  0  1  0  0  0  0  0  0  0  0  0
   -3.7100   -0.7090    0.3670 C   0  0  2  0  0  0  0  0  0  0  0  0
   -1.8840    1.0510   -0.3440 C   0  0  3  0  0  0  0  0  0  0  0  0
   -4.5290    0.1260   -0.6710 C   0  0  2  0  0  0  0  0  0  0  0  0
   -0.4410    1.5860   -0.1820 C   0  0  3  0  0  0  0  0  0  0  0  0
   -2.3590    0.0510    0.7520 C   0  0  3  0  0  0  0  0  0  0  0  0
   -3.6810    0.3200   -1.9410 C   0  0  0  0  0  0  0  0  0  0  0  0
   -2.1850    0.5340   -1.7540 C   0  0  0  0  0  0  0  0  0  0  0  0
   -1.6690   -0.4040   -1.9680 H   0  0  0  0  0  0  0  0  0  0  0  0
   -1.8680    1.2740   -2.4980 H   0  0  0  0  0  0  0  0  0  0  0  0
    1.7810    1.5380    0.8290 C   0  0  2  0  0  0  0  0  0  0  0  0
    0.0720   -0.2000    1.5280 C   0  0  0  0  0  0  0  0  0  0  0  0
    0.8110   -0.9470    1.8460 H   0  0  0  0  0  0  0  0  0  0  0  0
   -0.0820    0.4510    2.3970 H   0  0  0  0  0  0  0  0  0  0  0  0
   -1.2450   -0.9040    1.2250 C   0  0  0  0  0  0  0  0  0  0  0  0
   -1.5770   -1.4240    2.1330 H   0  0  0  0  0  0  0  0  0  0  0  0
   -1.0480   -1.6830    0.4840 H   0  0  0  0  0  0  0  0  0  0  0  0
   -0.3910    2.7290    0.8490 C   0  0  0  0  0  0  0  0  0  0  0  0
   -0.6370    3.6870    0.3770 H   0  0  0  0  0  0  0  0  0  0  0  0
   -1.1130    2.5830    1.6610 H   0  0  0  0  0  0  0  0  0  0  0  0
    1.0210    2.7480    1.4260 C   0  0  0  0  0  0  0  0  0  0  0  0
    0.9680    2.6520    2.5180 H   0  0  0  0  0  0  0  0  0  0  0  0
    1.5130    3.7060    1.2320 H   0  0  0  0  0  0  0  0  0  0  0  0
   -4.1770    0.3070   -3.0680 O   0  0  0  0  0  0  0  0  0  0  0  0
   -4.7830    1.4370   -0.1420 O   0  0  0  0  0  0  0  0  0  0  0  0
   -5.3390    1.9150   -0.7840 H   0  0  0  0  0  0  0  0  0  0  0  0
    2.9260    2.0410   -0.1100 C   0  0  3  0  0  0  0  0  0  0  0  0
    1.0640   -0.3870   -0.7720 C   0  0  0  0  0  0  0  0  0  0  0  0
    1.8770   -1.0260   -0.4170 H   0  0  0  0  0  0  0  0  0  0  0  0
    1.3900    0.1170   -1.6840 H   0  0  0  0  0  0  0  0  0  0  0  0
    0.2570   -1.0560   -1.0790 H   0  0  0  0  0  0  0  0  0  0  0  0
   -3.4290   -2.1380   -0.1890 C   0  0  0  0  0  0  0  0  0  0  0  0
   -3.0160   -2.7920    0.5870 H   0  0  0  0  0  0  0  0  0  0  0  0
   -2.7240   -2.1270   -1.0250 H   0  0  0  0  0  0  0  0  0  0  0  0
   -4.3290   -2.6410   -0.5510 H   0  0  0  0  0  0  0  0  0  0  0  0
   -4.5750   -0.8710    1.6530 C   0  0  0  0  0  0  0  0  0  0  0  0
   -4.0550   -1.5030    2.3830 H   0  0  0  0  0  0  0  0  0  0  0  0
   -4.7110    0.1060    2.1360 H   0  0  0  0  0  0  0  0  0  0  0  0
   -5.9050   -0.4950   -0.9730 C   0  0  0  0  0  0  0  0  0  0  0  0
   -6.4790    0.1670   -1.6360 H   0  0  0  0  0  0  0  0  0  0  0  0
   -5.8050   -1.4420   -1.5140 H   0  0  0  0  0  0  0  0  0  0  0  0
    4.6180    0.2540    0.6820 C   0  0  0  0  0  0  0  0  0  0  0  0
    4.8940    0.9870    1.4500 H   0  0  0  0  0  0  0  0  0  0  0  0
    3.8870   -0.4190    1.1410 H   0  0  0  0  0  0  0  0  0  0  0  0
    3.9930    0.9920   -0.5070 C   0  0  0  0  0  0  0  0  0  0  0  0
    3.5840    0.2740   -1.2220 H   0  0  0  0  0  0  0  0  0  0  0  0
    4.7950    1.5160   -1.0440 H   0  0  0  0  0  0  0  0  0  0  0  0
    2.4620    2.7980   -1.3610 C   0  0  0  0  0  0  0  0  0  0  0  0
    3.3190    3.2690   -1.8570 H   0  0  0  0  0  0  0  0  0  0  0  0
    1.7600    3.5990   -1.1160 H   0  0  0  0  0  0  0  0  0  0  0  0
    1.9930    2.1400   -2.0950 H   0  0  0  0  0  0  0  0  0  0  0  0
    5.8830   -0.5310    0.3100 C   0  0  0  0  0  0  0  0  0  0  0  0
    6.3170   -0.9370    1.2330 H   0  0  0  0  0  0  0  0  0  0  0  0
    6.6230    0.1770   -0.0880 H   0  0  0  0  0  0  0  0  0  0  0  0
    5.6850   -1.6750   -0.7020 C   0  0  0  0  0  0  0  0  0  0  0  0
    5.2360   -1.2770   -1.6190 H   0  0  0  0  0  0  0  0  0  0  0  0
   -5.9620   -1.4640    1.3830 C   0  0  0  0  0  0  0  0  0  0  0  0
   -5.8700   -2.5160    1.0930 H   0  0  0  0  0  0  0  0  0  0  0  0
   -6.5450   -1.4550    2.3110 H   0  0  0  0  0  0  0  0  0  0  0  0
   -6.7250   -0.7020    0.3030 C   0  0  0  0  0  0  0  0  0  0  0  0
   -7.0280    0.2740    0.7020 H   0  0  0  0  0  0  0  0  0  0  0  0
   -7.6500   -1.2370    0.0610 H   0  0  0  0  0  0  0  0  0  0  0  0
    7.0450   -2.2700   -1.0820 C   0  0  0  0  0  0  0  0  0  0  0  0
    7.5520   -2.6940   -0.2080 H   0  0  0  0  0  0  0  0  0  0  0  0
    7.6980   -1.5050   -1.5150 H   0  0  0  0  0  0  0  0  0  0  0  0
    6.9280   -3.0660   -1.8250 H   0  0  0  0  0  0  0  0  0  0  0  0
    4.7780   -2.7790   -0.1570 C   0  0  0  0  0  0  0  0  0  0  0  0
    5.1680   -3.1860    0.7820 H   0  0  0  0  0  0  0  0  0  0  0  0
    4.6960   -3.6030   -0.8740 H   0  0  0  0  0  0  0  0  0  0  0  0
    3.7660   -2.4100    0.0280 H   0  0  0  0  0  0  0  0  0  0  0  0
   -2.5100    1.9480   -0.2390 H   0  0  0  0  0  0  0  0  0  0  0  0
   -0.1290    2.0110   -1.1430 H   0  0  0  0  0  0  0  0  0  0  0  0
   -2.5860    0.6840    1.6230 H   0  0  0  0  0  0  0  0  0  0  0  0
    2.2800    1.0420    1.6710 H   0  0  0  0  0  0  0  0  0  0  0  0
    3.4800    2.7840    0.4850 H   0  0  0  0  0  0  0  0  0  0  0  0
  1  5  1  0  0  0  0
  1 11  1  0  0  0  0
  1 12  1  0  0  0  0
  1 28  1  0  0  0  0
  2  4  1  0  0  0  0
  2  6  1  0  0  0  0
  2 32  1  0  0  0  0
  2 36  1  0  0  0  0
  3  5  1  0  0  0  0
  3  6  1  0  0  0  0
  3  8  1  0  0  0  0
  3 71  1  0  0  0  0
  4  7  1  0  0  0  0
  4 25  1  0  0  0  0
  4 39  1  0  0  0  0
  5 18  1  0  0  0  0
  5 72  1  0  0  0  0
  6 15  1  0  0  0  0
  6 73  1  0  0  0  0
  7  8  1  0  0  0  0
  7 24  2  0  0  0  0
  8  9  1  0  0  0  0
  8 10  1  0  0  0  0
 11 21  1  0  0  0  0
 11 27  1  0  0  0  0
 11 74  1  0  0  0  0
 12 13  1  0  0  0  0
 12 14  1  0  0  0  0
 12 15  1  0  0  0  0
 15 16  1  0  0  0  0
 15 17  1  0  0  0  0
 18 19  1  0  0  0  0
 18 20  1  0  0  0  0
 18 21  1  0  0  0  0
 21 22  1  0  0  0  0
 21 23  1  0  0  0  0
 25 26  1  0  0  0  0
 27 45  1  0  0  0  0
 27 48  1  0  0  0  0
 27 75  1  0  0  0  0
 28 29  1  0  0  0  0
 28 30  1  0  0  0  0
 28 31  1  0  0  0  0
 32 33  1  0  0  0  0
 32 34  1  0  0  0  0
 32 35  1  0  0  0  0
 36 37  1  0  0  0  0
 36 38  1  0  0  0  0
 36 57  1  0  0  0  0
 39 40  1  0  0  0  0
 39 41  1  0  0  0  0
 39 60  1  0  0  0  0
 42 43  1  0  0  0  0
 42 44  1  0  0  0  0
 42 45  1  0  0  0  0
 42 52  1  0  0  0  0
 45 46  1  0  0  0  0
 45 47  1  0  0  0  0
 48 49  1  0  0  0  0
 48 50  1  0  0  0  0
 48 51  1  0  0  0  0
 52 53  1  0  0  0  0
 52 54  1  0  0  0  0
 52 55  1  0  0  0  0
 55 56  1  0  0  0  0
 55 63  1  0  0  0  0
 55 67  1  0  0  0  0
 57 58  1  0  0  0  0
 57 59  1  0  0  0  0
 57 60  1  0  0  0  0
 60 61  1  0  0  0  0
 60 62  1  0  0  0  0
 63 64  1  0  0  0  0
 63 65  1  0  0  0  0
 63 66  1  0  0  0  0
 67 68  1  0  0  0  0
 67 69  1  0  0  0  0
 67 70  1  0  0  0  0
M  END
>  <IDNUMBER>
AE-842/20720022

>  <NAME>
Guggulsterol IV, derivative of

>  <ADD_INFO>
http://www.specs.net/enter.php?specsid=AE-842/20720022

>  <H_ACCEPTORS>
2

>  <H_DONORS>
1

>  <ROTATABLE_BONDS>
5

>  <LOGP>
8.4300003

>  <LOGS>
-8.8299999

>  <TPSA>
37.299999

>  <PRICE>
N05

$$$$
AE-842/20720024
  MOE2011           3D

 85 88  0  0  1  0  0  0  0  0999 V2000
   -2.6320    0.5920   -1.7640 C   0  0  1  0  0  0  0  0  0  0  0  0
   -3.2580    0.4350   -0.3780 C   0  0  0  0  0  0  0  0  0  0  0  0
    1.6050    1.5150   -0.5900 C   0  0  1  0  0  0  0  0  0  0  0  0
   -0.8810    2.2360   -0.6860 C   0  0  3  0  0  0  0  0  0  0  0  0
   -1.1130    0.9610   -1.5810 C   0  0  3  0  0  0  0  0  0  0  0  0
    0.3880    2.0900    0.1770 C   0  0  3  0  0  0  0  0  0  0  0  0
   -2.9530    1.4860    0.6730 C   0  0  1  0  0  0  0  0  0  0  0  0
   -2.0870    2.6450    0.1830 C   0  0  0  0  0  0  0  0  0  0  0  0
   -2.7110    3.3650   -0.3590 H   0  0  0  0  0  0  0  0  0  0  0  0
   -1.7600    3.2320    1.0500 H   0  0  0  0  0  0  0  0  0  0  0  0
    2.6990    1.6590    0.5170 C   0  0  2  0  0  0  0  0  0  0  0  0
   -3.9750   -0.6510   -0.0210 C   0  0  0  0  0  0  0  0  0  0  0  0
   -4.4050   -0.7010    0.9770 H   0  0  0  0  0  0  0  0  0  0  0  0
    1.2640    0.0660   -0.9870 C   0  0  0  0  0  0  0  0  0  0  0  0
    1.7410   -0.1880   -1.9420 H   0  0  0  0  0  0  0  0  0  0  0  0
    1.6720   -0.6440   -0.2610 H   0  0  0  0  0  0  0  0  0  0  0  0
   -0.2430   -0.2270   -1.0960 C   0  0  0  0  0  0  0  0  0  0  0  0
   -0.6040   -0.5670   -0.1180 H   0  0  0  0  0  0  0  0  0  0  0  0
   -0.3420   -1.0800   -1.7740 H   0  0  0  0  0  0  0  0  0  0  0  0
   -2.8250   -0.6870   -2.6560 C   0  0  0  0  0  0  0  0  0  0  0  0
   -3.7090   -0.5620   -3.2980 H   0  0  0  0  0  0  0  0  0  0  0  0
   -1.9850   -0.8000   -3.3530 H   0  0  0  0  0  0  0  0  0  0  0  0
    0.9300    3.3620    0.8280 C   0  0  0  0  0  0  0  0  0  0  0  0
    0.8770    4.2150    0.1430 H   0  0  0  0  0  0  0  0  0  0  0  0
    0.3760    3.6320    1.7330 H   0  0  0  0  0  0  0  0  0  0  0  0
   -4.2100    2.0190    1.1400 O   0  0  0  0  0  0  0  0  0  0  0  0
    2.3920    3.0380    1.1600 C   0  0  0  0  0  0  0  0  0  0  0  0
    2.5420    2.9870    2.2440 H   0  0  0  0  0  0  0  0  0  0  0  0
    3.0290    3.8440    0.7900 H   0  0  0  0  0  0  0  0  0  0  0  0
   -4.2330    2.4830    2.4180 C   0  0  0  0  0  0  0  0  0  0  0  0
   -5.3590   -3.4600    0.4230 C   0  0  0  0  0  0  0  0  0  0  0  0
   -4.1900   -1.8510   -0.8920 C   0  0  3  0  0  0  0  0  0  0  0  0
   -4.1660   -3.0380   -0.0770 O   0  0  0  0  0  0  0  0  0  0  0  0
   -3.2910    2.4920    3.1970 O   0  0  0  0  0  0  0  0  0  0  0  0
   -6.4410   -2.9150    0.2580 O   0  0  0  0  0  0  0  0  0  0  0  0
    4.2150    1.4330    0.2440 C   0  0  3  0  0  0  0  0  0  0  0  0
   -3.0420   -1.9860   -1.8890 C   0  0  0  0  0  0  0  0  0  0  0  0
   -2.1280   -2.2980   -1.3710 H   0  0  0  0  0  0  0  0  0  0  0  0
   -3.2640   -2.8000   -2.5910 H   0  0  0  0  0  0  0  0  0  0  0  0
   -3.3470    1.7140   -2.5690 C   0  0  0  0  0  0  0  0  0  0  0  0
   -2.9840    1.7330   -3.6040 H   0  0  0  0  0  0  0  0  0  0  0  0
   -3.1960    2.7200   -2.1820 H   0  0  0  0  0  0  0  0  0  0  0  0
   -4.4300    1.5440   -2.6010 H   0  0  0  0  0  0  0  0  0  0  0  0
    1.9480    2.3230   -1.8590 C   0  0  0  0  0  0  0  0  0  0  0  0
    2.7380    1.8300   -2.4330 H   0  0  0  0  0  0  0  0  0  0  0  0
    2.2800    3.3400   -1.6310 H   0  0  0  0  0  0  0  0  0  0  0  0
    1.1020    2.4130   -2.5440 H   0  0  0  0  0  0  0  0  0  0  0  0
    4.3540   -1.0680    0.8570 C   0  0  0  0  0  0  0  0  0  0  0  0
    4.9870   -0.8410    1.7230 H   0  0  0  0  0  0  0  0  0  0  0  0
    3.3190   -1.0540    1.2050 H   0  0  0  0  0  0  0  0  0  0  0  0
   -5.6030    2.9960    2.7450 C   0  0  0  0  0  0  0  0  0  0  0  0
   -6.3310    2.1850    2.6630 H   0  0  0  0  0  0  0  0  0  0  0  0
   -5.8620    3.8170    2.0720 H   0  0  0  0  0  0  0  0  0  0  0  0
   -5.6130    3.3710    3.7720 H   0  0  0  0  0  0  0  0  0  0  0  0
   -5.1560   -4.7070    1.2290 C   0  0  0  0  0  0  0  0  0  0  0  0
   -4.7150   -5.4870    0.6030 H   0  0  0  0  0  0  0  0  0  0  0  0
   -6.1240   -5.0620    1.5950 H   0  0  0  0  0  0  0  0  0  0  0  0
   -4.5150   -4.4930    2.0880 H   0  0  0  0  0  0  0  0  0  0  0  0
    4.5680    0.0020   -0.2210 C   0  0  0  0  0  0  0  0  0  0  0  0
    4.0050   -0.2500   -1.1260 H   0  0  0  0  0  0  0  0  0  0  0  0
    5.6280   -0.0260   -0.5080 H   0  0  0  0  0  0  0  0  0  0  0  0
    4.8950    2.4330   -0.7030 C   0  0  0  0  0  0  0  0  0  0  0  0
    5.9830    2.3690   -0.5850 H   0  0  0  0  0  0  0  0  0  0  0  0
    4.6200    3.4690   -0.4990 H   0  0  0  0  0  0  0  0  0  0  0  0
    4.6890    2.2180   -1.7540 H   0  0  0  0  0  0  0  0  0  0  0  0
    4.6960   -2.4630    0.3230 C   0  0  0  0  0  0  0  0  0  0  0  0
    5.7220   -2.4470   -0.0660 H   0  0  0  0  0  0  0  0  0  0  0  0
    4.0410   -2.6980   -0.5260 H   0  0  0  0  0  0  0  0  0  0  0  0
    4.5850   -3.5710    1.3870 C   0  0  0  0  0  0  0  0  0  0  0  0
    5.2220   -3.3060    2.2400 H   0  0  0  0  0  0  0  0  0  0  0  0
    5.0990   -4.8940    0.8120 C   0  0  0  0  0  0  0  0  0  0  0  0
    4.4980   -5.2150   -0.0460 H   0  0  0  0  0  0  0  0  0  0  0  0
    5.0630   -5.6870    1.5670 H   0  0  0  0  0  0  0  0  0  0  0  0
    6.1380   -4.7980    0.4810 H   0  0  0  0  0  0  0  0  0  0  0  0
    3.1530   -3.7520    1.8950 C   0  0  0  0  0  0  0  0  0  0  0  0
    2.4600   -3.9450    1.0690 H   0  0  0  0  0  0  0  0  0  0  0  0
    2.8050   -2.8650    2.4330 H   0  0  0  0  0  0  0  0  0  0  0  0
    3.0920   -4.5960    2.5910 H   0  0  0  0  0  0  0  0  0  0  0  0
   -0.7200    3.0800   -1.3710 H   0  0  0  0  0  0  0  0  0  0  0  0
   -0.7370    1.2070   -2.5850 H   0  0  0  0  0  0  0  0  0  0  0  0
    0.1430    1.4040    1.0050 H   0  0  0  0  0  0  0  0  0  0  0  0
   -2.4270    0.9780    1.4940 H   0  0  0  0  0  0  0  0  0  0  0  0
    2.4360    0.9310    1.3000 H   0  0  0  0  0  0  0  0  0  0  0  0
   -5.1430   -1.7650   -1.4280 H   0  0  0  0  0  0  0  0  0  0  0  0
    4.7120    1.5790    1.2150 H   0  0  0  0  0  0  0  0  0  0  0  0
  1  2  1  0  0  0  0
  1  5  1  0  0  0  0
  1 20  1  0  0  0  0
  1 40  1  0  0  0  0
  2  7  1  0  0  0  0
  2 12  2  0  0  0  0
  3  6  1  0  0  0  0
  3 11  1  0  0  0  0
  3 14  1  0  0  0  0
  3 44  1  0  0  0  0
  4  5  1  0  0  0  0
  4  6  1  0  0  0  0
  4  8  1  0  0  0  0
  4 79  1  0  0  0  0
  5 17  1  0  0  0  0
  5 80  1  0  0  0  0
  6 23  1  0  0  0  0
  6 81  1  0  0  0  0
  7  8  1  0  0  0  0
  7 26  1  0  0  0  0
  7 82  1  0  0  0  0
  8  9  1  0  0  0  0
  8 10  1  0  0  0  0
 11 27  1  0  0  0  0
 11 36  1  0  0  0  0
 11 83  1  0  0  0  0
 12 13  1  0  0  0  0
 12 32  1  0  0  0  0
 14 15  1  0  0  0  0
 14 16  1  0  0  0  0
 14 17  1  0  0  0  0
 17 18  1  0  0  0  0
 17 19  1  0  0  0  0
 20 21  1  0  0  0  0
 20 22  1  0  0  0  0
 20 37  1  0  0  0  0
 23 24  1  0  0  0  0
 23 25  1  0  0  0  0
 23 27  1  0  0  0  0
 26 30  1  0  0  0  0
 27 28  1  0  0  0  0
 27 29  1  0  0  0  0
 30 34  2  0  0  0  0
 30 51  1  0  0  0  0
 31 33  1  0  0  0  0
 31 35  2  0  0  0  0
 31 55  1  0  0  0  0
 32 33  1  0  0  0  0
 32 37  1  0  0  0  0
 32 84  1  0  0  0  0
 36 59  1  0  0  0  0
 36 62  1  0  0  0  0
 36 85  1  0  0  0  0
 37 38  1  0  0  0  0
 37 39  1  0  0  0  0
 40 41  1  0  0  0  0
 40 42  1  0  0  0  0
 40 43  1  0  0  0  0
 44 45  1  0  0  0  0
 44 46  1  0  0  0  0
 44 47  1  0  0  0  0
 48 49  1  0  0  0  0
 48 50  1  0  0  0  0
 48 59  1  0  0  0  0
 48 66  1  0  0  0  0
 51 52  1  0  0  0  0
 51 53  1  0  0  0  0
 51 54  1  0  0  0  0
 55 56  1  0  0  0  0
 55 57  1  0  0  0  0
 55 58  1  0  0  0  0
 59 60  1  0  0  0  0
 59 61  1  0  0  0  0
 62 63  1  0  0  0  0
 62 64  1  0  0  0  0
 62 65  1  0  0  0  0
 66 67  1  0  0  0  0
 66 68  1  0  0  0  0
 66 69  1  0  0  0  0
 69 70  1  0  0  0  0
 69 71  1  0  0  0  0
 69 75  1  0  0  0  0
 71 72  1  0  0  0  0
 71 73  1  0  0  0  0
 71 74  1  0  0  0  0
 75 76  1  0  0  0  0
 75 77  1  0  0  0  0
 75 78  1  0  0  0  0
M  END
>  <IDNUMBER>
AE-842/20720024

>  <NAME>
Cholest-4-ene-3,6-di-acetate

>  <ADD_INFO>
http://www.specs.net/enter.php?specsid=AE-842/20720024

>  <H_ACCEPTORS>
4

>  <H_DONORS>
0

>  <ROTATABLE_BONDS>
9

>  <LOGP>
9.21

>  <LOGS>
-10.61

>  <TPSA>
52.599998

>  <PRICE>
N07

$$$$
AE-842/20720046
  MOE2011           3D

 79 82  0  0  1  0  0  0  0  0999 V2000
   -4.2180    0.5420   -0.1760 C   0  0  1  0  0  0  0  0  0  0  0  0
   -3.3040   -0.6120   -0.6960 C   0  0  1  0  0  0  0  0  0  0  0  0
    0.9970    0.4620    0.2090 C   0  0  1  0  0  0  0  0  0  0  0  0
   -1.4590    1.2390   -0.2520 C   0  0  3  0  0  0  0  0  0  0  0  0
   -1.7700   -0.2720   -0.4270 C   0  0  3  0  0  0  0  0  0  0  0  0
    0.0540    1.5030   -0.4990 C   0  0  3  0  0  0  0  0  0  0  0  0
   -3.8080    1.9010   -0.7770 C   0  0  0  0  0  0  0  0  0  0  0  0
   -2.3510    2.1120   -1.1300 C   0  0  0  0  0  0  0  0  0  0  0  0
   -2.1970    1.9070   -2.1930 H   0  0  0  0  0  0  0  0  0  0  0  0
   -2.1330    3.1730   -0.9700 H   0  0  0  0  0  0  0  0  0  0  0  0
    2.0750    1.3470    0.9640 C   0  0  2  0  0  0  0  0  0  0  0  0
    0.1980   -0.3570    1.2610 C   0  0  0  0  0  0  0  0  0  0  0  0
    0.8400   -1.1280    1.7070 H   0  0  0  0  0  0  0  0  0  0  0  0
   -0.0860    0.2910    2.0990 H   0  0  0  0  0  0  0  0  0  0  0  0
   -5.7190    0.2890   -0.4270 C   0  0  0  0  0  0  0  0  0  0  0  0
   -6.3200    0.9670    0.1930 H   0  0  0  0  0  0  0  0  0  0  0  0
   -5.9800    0.5600   -1.4600 H   0  0  0  0  0  0  0  0  0  0  0  0
   -1.0880   -1.0170    0.7410 C   0  0  0  0  0  0  0  0  0  0  0  0
   -1.7670   -1.0890    1.5990 H   0  0  0  0  0  0  0  0  0  0  0  0
   -0.8570   -2.0420    0.4240 H   0  0  0  0  0  0  0  0  0  0  0  0
   -3.7540   -1.9960   -0.1010 C   0  0  0  0  0  0  0  0  0  0  0  0
   -3.7590   -2.7550   -0.8950 H   0  0  0  0  0  0  0  0  0  0  0  0
   -3.0610   -2.3960    0.6390 H   0  0  0  0  0  0  0  0  0  0  0  0
    0.4880    2.8850    0.0210 C   0  0  0  0  0  0  0  0  0  0  0  0
    1.1490    3.3610   -0.7140 H   0  0  0  0  0  0  0  0  0  0  0  0
   -0.3380    3.5750    0.2070 H   0  0  0  0  0  0  0  0  0  0  0  0
    1.2540    2.6030    1.2970 C   0  0  0  0  0  0  0  0  0  0  0  0
    0.5470    2.3910    2.1090 H   0  0  0  0  0  0  0  0  0  0  0  0
    1.8370    3.4620    1.6330 H   0  0  0  0  0  0  0  0  0  0  0  0
   -4.6260    2.8060   -0.9530 O   0  0  0  0  0  0  0  0  0  0  0  0
   -4.0270    0.6770    1.2410 O   0  0  0  0  0  0  0  0  0  0  0  0
   -4.6100    1.3930    1.5540 H   0  0  0  0  0  0  0  0  0  0  0  0
    3.4000    1.6410    0.1750 C   0  0  3  0  0  0  0  0  0  0  0  0
   -6.1550   -1.1660   -0.2040 C   0  0  1  0  0  0  0  0  0  0  0  0
   -3.4770   -0.7600   -2.2460 C   0  0  0  0  0  0  0  0  0  0  0  0
   -2.8190   -1.5460   -2.6350 H   0  0  0  0  0  0  0  0  0  0  0  0
   -3.2390    0.1530   -2.7940 H   0  0  0  0  0  0  0  0  0  0  0  0
   -4.4980   -1.0400   -2.5230 H   0  0  0  0  0  0  0  0  0  0  0  0
    1.5770   -0.5290   -0.8200 C   0  0  0  0  0  0  0  0  0  0  0  0
    2.1850   -1.2960   -0.3330 H   0  0  0  0  0  0  0  0  0  0  0  0
    2.1830   -0.0340   -1.5830 H   0  0  0  0  0  0  0  0  0  0  0  0
    0.7970   -1.0680   -1.3640 H   0  0  0  0  0  0  0  0  0  0  0  0
   -5.1340   -1.9990    0.5630 C   0  0  0  0  0  0  0  0  0  0  0  0
   -5.0330   -1.6350    1.5920 H   0  0  0  0  0  0  0  0  0  0  0  0
   -5.4930   -3.0310    0.6610 H   0  0  0  0  0  0  0  0  0  0  0  0
   -7.4790   -1.2350    0.3360 O   0  0  0  0  0  0  0  0  0  0  0  0
    5.4060    0.3420   -0.7650 C   0  0  0  0  0  0  0  0  0  0  0  0
    4.8700    0.0040   -1.6590 H   0  0  0  0  0  0  0  0  0  0  0  0
    5.8210    1.3240   -1.0220 H   0  0  0  0  0  0  0  0  0  0  0  0
    4.4220    0.4930    0.3970 C   0  0  0  0  0  0  0  0  0  0  0  0
    4.9730    0.6660    1.3310 H   0  0  0  0  0  0  0  0  0  0  0  0
    3.8970   -0.4520    0.5310 H   0  0  0  0  0  0  0  0  0  0  0  0
    4.0770    2.9630    0.5790 C   0  0  0  0  0  0  0  0  0  0  0  0
    5.0590    3.0740    0.1100 H   0  0  0  0  0  0  0  0  0  0  0  0
    4.2200    3.0200    1.6640 H   0  0  0  0  0  0  0  0  0  0  0  0
    3.4860    3.8260    0.2570 H   0  0  0  0  0  0  0  0  0  0  0  0
    6.5960   -0.5850   -0.4820 C   0  0  0  0  0  0  0  0  0  0  0  0
    7.1690   -0.1860    0.3650 H   0  0  0  0  0  0  0  0  0  0  0  0
    7.2650   -0.5020   -1.3510 H   0  0  0  0  0  0  0  0  0  0  0  0
    6.3340   -2.0880   -0.2610 C   0  0  0  0  0  0  0  0  0  0  0  0
    7.2990   -2.5890   -0.4250 H   0  0  0  0  0  0  0  0  0  0  0  0
   -7.6000   -0.9680    1.7260 C   0  0  0  0  0  0  0  0  0  0  0  0
   -8.6620   -0.8350    1.9540 H   0  0  0  0  0  0  0  0  0  0  0  0
   -7.0690   -0.0590    2.0180 H   0  0  0  0  0  0  0  0  0  0  0  0
   -7.2380   -1.8200    2.3090 H   0  0  0  0  0  0  0  0  0  0  0  0
    5.9290   -2.4280    1.1730 C   0  0  0  0  0  0  0  0  0  0  0  0
    4.9140   -2.1040    1.4110 H   0  0  0  0  0  0  0  0  0  0  0  0
    6.6140   -1.9690    1.8940 H   0  0  0  0  0  0  0  0  0  0  0  0
    5.9640   -3.5120    1.3290 H   0  0  0  0  0  0  0  0  0  0  0  0
    5.3500   -2.6860   -1.2640 C   0  0  0  0  0  0  0  0  0  0  0  0
    4.3350   -2.3060   -1.1150 H   0  0  0  0  0  0  0  0  0  0  0  0
    5.3110   -3.7760   -1.1610 H   0  0  0  0  0  0  0  0  0  0  0  0
    5.6540   -2.4600   -2.2910 H   0  0  0  0  0  0  0  0  0  0  0  0
   -1.6780    1.5160    0.7900 H   0  0  0  0  0  0  0  0  0  0  0  0
   -1.2420   -0.5930   -1.3330 H   0  0  0  0  0  0  0  0  0  0  0  0
    0.2280    1.4850   -1.5840 H   0  0  0  0  0  0  0  0  0  0  0  0
    2.3590    0.8690    1.9110 H   0  0  0  0  0  0  0  0  0  0  0  0
    3.1680    1.7260   -0.8920 H   0  0  0  0  0  0  0  0  0  0  0  0
   -6.2530   -1.6250   -1.1960 H   0  0  0  0  0  0  0  0  0  0  0  0
  1  2  1  0  0  0  0
  1  7  1  0  0  0  0
  1 15  1  0  0  0  0
  1 31  1  0  0  0  0
  2  5  1  0  0  0  0
  2 21  1  0  0  0  0
  2 35  1  0  0  0  0
  3  6  1  0  0  0  0
  3 11  1  0  0  0  0
  3 12  1  0  0  0  0
  3 39  1  0  0  0  0
  4  5  1  0  0  0  0
  4  6  1  0  0  0  0
  4  8  1  0  0  0  0
  4 74  1  0  0  0  0
  5 18  1  0  0  0  0
  5 75  1  0  0  0  0
  6 24  1  0  0  0  0
  6 76  1  0  0  0  0
  7  8  1  0  0  0  0
  7 30  2  0  0  0  0
  8  9  1  0  0  0  0
  8 10  1  0  0  0  0
 11 27  1  0  0  0  0
 11 33  1  0  0  0  0
 11 77  1  0  0  0  0
 12 13  1  0  0  0  0
 12 14  1  0  0  0  0
 12 18  1  0  0  0  0
 15 16  1  0  0  0  0
 15 17  1  0  0  0  0
 15 34  1  0  0  0  0
 18 19  1  0  0  0  0
 18 20  1  0  0  0  0
 21 22  1  0  0  0  0
 21 23  1  0  0  0  0
 21 43  1  0  0  0  0
 24 25  1  0  0  0  0
 24 26  1  0  0  0  0
 24 27  1  0  0  0  0
 27 28  1  0  0  0  0
 27 29  1  0  0  0  0
 31 32  1  0  0  0  0
 33 50  1  0  0  0  0
 33 53  1  0  0  0  0
 33 78  1  0  0  0  0
 34 43  1  0  0  0  0
 34 46  1  0  0  0  0
 34 79  1  0  0  0  0
 35 36  1  0  0  0  0
 35 37  1  0  0  0  0
 35 38  1  0  0  0  0
 39 40  1  0  0  0  0
 39 41  1  0  0  0  0
 39 42  1  0  0  0  0
 43 44  1  0  0  0  0
 43 45  1  0  0  0  0
 46 62  1  0  0  0  0
 47 48  1  0  0  0  0
 47 49  1  0  0  0  0
 47 50  1  0  0  0  0
 47 57  1  0  0  0  0
 50 51  1  0  0  0  0
 50 52  1  0  0  0  0
 53 54  1  0  0  0  0
 53 55  1  0  0  0  0
 53 56  1  0  0  0  0
 57 58  1  0  0  0  0
 57 59  1  0  0  0  0
 57 60  1  0  0  0  0
 60 61  1  0  0  0  0
 60 66  1  0  0  0  0
 60 70  1  0  0  0  0
 62 63  1  0  0  0  0
 62 64  1  0  0  0  0
 62 65  1  0  0  0  0
 66 67  1  0  0  0  0
 66 68  1  0  0  0  0
 66 69  1  0  0  0  0
 70 71  1  0  0  0  0
 70 72  1  0  0  0  0
 70 73  1  0  0  0  0
M  END
>  <IDNUMBER>
AE-842/20720046

>  <NAME>
Guggulsterol IV, derivative of

>  <ADD_INFO>
http://www.specs.net/enter.php?specsid=AE-842/20720046

>  <H_ACCEPTORS>
3

>  <H_DONORS>
1

>  <ROTATABLE_BONDS>
6

>  <LOGP>
7.5900002

>  <LOGS>
-8.3299999

>  <TPSA>
46.529999

>  <PRICE>
N05

$$$$
AE-848/01238044
  MOE2011           3D

 21 22  0  0  0  0  0  0  0  0999 V2000
    0.1260   -1.1360   -0.0010 C   0  0  0  0  0  0  0  0  0  0  0  0
   -1.4250    0.7820    0.0000 C   0  0  0  0  0  0  0  0  0  0  0  0
   -0.9720   -2.0190   -0.0010 O   0  0  0  0  0  0  0  0  0  0  0  0
   -2.2730   -1.5450    0.0000 C   0  0  0  0  0  0  0  0  0  0  0  0
   -0.0550    0.2500    0.0000 C   0  0  0  0  0  0  0  0  0  0  0  0
   -2.4480   -0.0840    0.0010 C   0  0  0  0  0  0  0  0  0  0  0  0
   -3.4800    0.2510    0.0010 H   0  0  0  0  0  0  0  0  0  0  0  0
    1.3910   -1.7260   -0.0010 C   0  0  0  0  0  0  0  0  0  0  0  0
    1.4810   -2.8070   -0.0020 H   0  0  0  0  0  0  0  0  0  0  0  0
    1.0910    1.0570    0.0000 C   0  0  0  0  0  0  0  0  0  0  0  0
    1.0180    2.1410    0.0020 H   0  0  0  0  0  0  0  0  0  0  0  0
   -3.2440   -2.2930    0.0010 O   0  0  0  0  0  0  0  0  0  0  0  0
    2.5080   -0.9020    0.0000 C   0  0  0  0  0  0  0  0  0  0  0  0
    2.3670    0.4820    0.0010 C   0  0  0  0  0  0  0  0  0  0  0  0
    3.2500    1.1160    0.0020 H   0  0  0  0  0  0  0  0  0  0  0  0
   -1.6580    2.2640   -0.0010 C   0  0  0  0  0  0  0  0  0  0  0  0
   -1.2190    2.7280   -0.8910 H   0  0  0  0  0  0  0  0  0  0  0  0
   -1.2230    2.7270    0.8920 H   0  0  0  0  0  0  0  0  0  0  0  0
   -2.7260    2.5090   -0.0030 H   0  0  0  0  0  0  0  0  0  0  0  0
    3.7730   -1.4120    0.0010 O   0  0  0  0  0  0  0  0  0  0  0  0
    3.7210   -2.3820    0.0010 H   0  0  0  0  0  0  0  0  0  0  0  0
  1  3  1  0  0  0  0
  1  5  2  0  0  0  0
  1  8  1  0  0  0  0
  2  5  1  0  0  0  0
  2  6  2  0  0  0  0
  2 16  1  0  0  0  0
  3  4  1  0  0  0  0
  4  6  1  0  0  0  0
  4 12  2  0  0  0  0
  5 10  1  0  0  0  0
  6  7  1  0  0  0  0
  8  9  1  0  0  0  0
  8 13  2  0  0  0  0
 10 11  1  0  0  0  0
 10 14  2  0  0  0  0
 13 14  1  0  0  0  0
 13 20  1  0  0  0  0
 14 15  1  0  0  0  0
 16 17  1  0  0  0  0
 16 18  1  0  0  0  0
 16 19  1  0  0  0  0
 20 21  1  0  0  0  0
M  END
>  <IDNUMBER>
AE-848/01238044

>  <NAME>
7-hydroxy-4-methyl-2H-chromen-2-one

>  <ADD_INFO>
http://www.specs.net/enter.php?specsid=AE-848/01238044

>  <H_ACCEPTORS>
1

>  <H_DONORS>
1

>  <ROTATABLE_BONDS>
0

>  <LOGP>
1.9

>  <LOGS>
-1.53

>  <TPSA>
46.529999

>  <PRICE>
N07

$$$$
AE-848/02291057
  MOE2011           3D

 56 62  0  0  1  0  0  0  0  0999 V2000
   -0.0560   -0.7700    0.4730 C   0  0  2  0  0  0  0  0  0  0  0  0
    0.3410    1.6220    0.3940 N   0  0  0  0  0  0  0  0  0  0  0  0
   -0.7390    0.6320    0.4190 C   0  0  1  0  0  0  0  0  0  0  0  0
    1.5770    0.9740    0.2800 C   0  0  0  0  0  0  0  0  0  0  0  0
   -1.5660    0.9880   -0.8240 C   0  0  1  0  0  0  0  0  0  0  0  0
    1.3900   -0.4100    0.2260 C   0  0  0  0  0  0  0  0  0  0  0  0
    0.0840    2.9780    0.3790 C   0  0  0  0  0  0  0  0  0  0  0  0
   -0.6980   -1.8320   -0.4350 C   0  0  1  0  0  0  0  0  0  0  0  0
   -2.3550   -0.2080   -1.3760 C   0  0  2  0  0  0  0  0  0  0  0  0
   -1.7980   -2.4590    0.4440 N   0  3  3  0  0  0  0  0  0  0  0  0
   -1.6630   -3.4790    0.4210 H   0  0  0  0  0  0  0  0  0  0  0  0
   -2.3100    2.3050   -0.5050 C   0  0  2  0  0  0  0  0  0  0  0  0
   -3.3960   -0.7720   -0.4300 C   0  0  0  0  0  0  0  0  0  0  0  0
   -1.3930    3.3400    0.2070 C   0  0  0  0  0  0  0  0  0  0  0  0
   -1.7770    3.5830    1.2060 H   0  0  0  0  0  0  0  0  0  0  0  0
   -1.4230    4.2700   -0.3750 H   0  0  0  0  0  0  0  0  0  0  0  0
    2.8330    1.5400    0.1420 C   0  0  0  0  0  0  0  0  0  0  0  0
    2.9400    2.6170    0.1750 H   0  0  0  0  0  0  0  0  0  0  0  0
   -1.3110   -1.2880   -1.7200 C   0  0  0  0  0  0  0  0  0  0  0  0
   -0.5240   -0.8740   -2.3630 H   0  0  0  0  0  0  0  0  0  0  0  0
   -1.7700   -2.0990   -2.3000 H   0  0  0  0  0  0  0  0  0  0  0  0
    2.4740   -1.2620    0.0360 C   0  0  0  0  0  0  0  0  0  0  0  0
    2.3150   -2.3330    0.0240 H   0  0  0  0  0  0  0  0  0  0  0  0
   -3.2090   -2.2070   -0.0310 C   0  0  0  0  0  0  0  0  0  0  0  0
   -3.3820   -2.8760   -0.8820 H   0  0  0  0  0  0  0  0  0  0  0  0
   -3.8820   -2.5240    0.7750 H   0  0  0  0  0  0  0  0  0  0  0  0
   -0.1800   -1.4160    1.8630 C   0  0  0  0  0  0  0  0  0  0  0  0
   -0.0340   -0.7080    2.6870 H   0  0  0  0  0  0  0  0  0  0  0  0
    0.5560   -2.2200    1.9970 H   0  0  0  0  0  0  0  0  0  0  0  0
    3.9340    0.6950   -0.0530 C   0  0  0  0  0  0  0  0  0  0  0  0
    3.7550   -0.7110   -0.1090 C   0  0  0  0  0  0  0  0  0  0  0  0
   -1.5710   -2.0110    1.8750 C   0  0  0  0  0  0  0  0  0  0  0  0
   -2.3270   -1.2650    2.1400 H   0  0  0  0  0  0  0  0  0  0  0  0
   -1.6640   -2.8850    2.5250 H   0  0  0  0  0  0  0  0  0  0  0  0
   -3.4280    2.1170    0.3720 O   0  0  0  0  0  0  0  0  0  0  0  0
    0.9320    3.8630    0.4750 O   0  0  0  0  0  0  0  0  0  0  0  0
   -4.3880   -0.0160    0.0720 C   0  0  0  0  0  0  0  0  0  0  0  0
   -5.1140   -0.4410    0.7610 H   0  0  0  0  0  0  0  0  0  0  0  0
   -4.5350    1.4410   -0.2120 C   0  0  0  0  0  0  0  0  0  0  0  0
   -5.4390    1.8080    0.2840 H   0  0  0  0  0  0  0  0  0  0  0  0
   -4.6430    1.6560   -1.2820 H   0  0  0  0  0  0  0  0  0  0  0  0
    5.2270    1.1390   -0.2080 O   0  0  0  0  0  0  0  0  0  0  0  0
    4.8980   -1.4530   -0.3000 O   0  0  0  0  0  0  0  0  0  0  0  0
    4.7610   -2.8620   -0.4160 C   0  0  0  0  0  0  0  0  0  0  0  0
    5.7560   -3.2810   -0.5960 H   0  0  0  0  0  0  0  0  0  0  0  0
    4.1290   -3.1290   -1.2700 H   0  0  0  0  0  0  0  0  0  0  0  0
    4.3790   -3.2990    0.5120 H   0  0  0  0  0  0  0  0  0  0  0  0
    5.4410    2.5440   -0.1920 C   0  0  0  0  0  0  0  0  0  0  0  0
    6.5120    2.7200   -0.3360 H   0  0  0  0  0  0  0  0  0  0  0  0
    5.1630    2.9750    0.7760 H   0  0  0  0  0  0  0  0  0  0  0  0
    4.9110    3.0350   -1.0140 H   0  0  0  0  0  0  0  0  0  0  0  0
   -0.0070   -2.6530   -0.6590 H   0  0  0  0  0  0  0  0  0  0  0  0
   -2.8520    0.0860   -2.3100 H   0  0  0  0  0  0  0  0  0  0  0  0
   -0.8680    1.2590   -1.6350 H   0  0  0  0  0  0  0  0  0  0  0  0
   -1.3300    0.8050    1.3280 H   0  0  0  0  0  0  0  0  0  0  0  0
   -2.6770    2.7540   -1.4370 H   0  0  0  0  0  0  0  0  0  0  0  0
  1  3  1  0  0  0  0
  1  6  1  0  0  0  0
  1  8  1  0  0  0  0
  1 27  1  0  0  0  0
  2  3  1  0  0  0  0
  2  4  1  0  0  0  0
  2  7  1  0  0  0  0
  3  5  1  0  0  0  0
  3 55  1  0  0  0  0
  4  6  2  0  0  0  0
  4 17  1  0  0  0  0
  5  9  1  0  0  0  0
  5 12  1  0  0  0  0
  5 54  1  0  0  0  0
  6 22  1  0  0  0  0
  7 14  1  0  0  0  0
  7 36  2  0  0  0  0
  8 10  1  0  0  0  0
  8 19  1  0  0  0  0
  8 52  1  0  0  0  0
  9 13  1  0  0  0  0
  9 19  1  0  0  0  0
  9 53  1  0  0  0  0
 10 11  1  0  0  0  0
 10 24  1  0  0  0  0
 10 32  1  0  0  0  0
 12 14  1  0  0  0  0
 12 35  1  0  0  0  0
 12 56  1  0  0  0  0
 13 24  1  0  0  0  0
 13 37  2  0  0  0  0
 14 15  1  0  0  0  0
 14 16  1  0  0  0  0
 17 18  1  0  0  0  0
 17 30  2  0  0  0  0
 19 20  1  0  0  0  0
 19 21  1  0  0  0  0
 22 23  1  0  0  0  0
 22 31  2  0  0  0  0
 24 25  1  0  0  0  0
 24 26  1  0  0  0  0
 27 28  1  0  0  0  0
 27 29  1  0  0  0  0
 27 32  1  0  0  0  0
 30 31  1  0  0  0  0
 30 42  1  0  0  0  0
 31 43  1  0  0  0  0
 32 33  1  0  0  0  0
 32 34  1  0  0  0  0
 35 39  1  0  0  0  0
 37 38  1  0  0  0  0
 37 39  1  0  0  0  0
 39 40  1  0  0  0  0
 39 41  1  0  0  0  0
 42 48  1  0  0  0  0
 43 44  1  0  0  0  0
 44 45  1  0  0  0  0
 44 46  1  0  0  0  0
 44 47  1  0  0  0  0
 48 49  1  0  0  0  0
 48 50  1  0  0  0  0
 48 51  1  0  0  0  0
M  CHG  1  10   1
M  END
>  <IDNUMBER>
AE-848/02291057

>  <NAME>
Brucine

>  <ADD_INFO>
http://www.specs.net/enter.php?specsid=AE-848/02291057

>  <H_ACCEPTORS>
4

>  <H_DONORS>
0

>  <ROTATABLE_BONDS>
2

>  <LOGP>
0.98000002

>  <LOGS>
-2.9100001

>  <TPSA>
51.240002

>  <PRICE>
N07

$$$$
AE-848/20954002
  MOE2011           3D

 50 54  0  0  1  0  0  0  0  0999 V2000
   -2.0400    0.9210   -0.2550 N   0  0  0  0  0  0  0  0  0  0  0  0
   -1.3970   -0.0680   -1.0880 C   0  0  3  0  0  0  0  0  0  0  0  0
   -1.7440   -1.5110   -0.7740 C   0  0  3  0  0  0  0  0  0  0  0  0
   -3.2130    1.5620   -0.5470 C   0  0  0  0  0  0  0  0  0  0  0  0
   -3.4140    2.4430    0.5050 C   0  0  0  0  0  0  0  0  0  0  0  0
   -2.4090    2.3240    1.4370 N   0  0  0  0  0  0  0  0  0  0  0  0
   -0.5150   -2.2700   -1.1980 C   0  0  3  0  0  0  0  0  0  0  0  0
   -1.6030    1.4010    0.9510 C   0  0  0  0  0  0  0  0  0  0  0  0
   -0.6910    1.0500    1.4200 H   0  0  0  0  0  0  0  0  0  0  0  0
    0.0280    0.0580   -0.9670 O   0  0  0  0  0  0  0  0  0  0  0  0
    0.6270   -1.2480   -1.1200 C   0  0  3  0  0  0  0  0  0  0  0  0
   -1.8460   -1.8180    0.6200 O   0  0  0  0  0  0  0  0  0  0  0  0
   -0.3850   -3.3720   -0.3020 O   0  0  0  0  0  0  0  0  0  0  0  0
   -1.3620   -3.1630    0.7250 C   0  0  0  0  0  0  0  0  0  0  0  0
   -3.9970    1.3920   -1.6260 N   0  0  0  0  0  0  0  0  0  0  0  0
   -4.5470    3.2440    0.4060 C   0  0  0  0  0  0  0  0  0  0  0  0
   -5.3790    3.1410   -0.6470 N   0  0  0  0  0  0  0  0  0  0  0  0
    2.8270    0.5670    0.4470 C   0  0  0  0  0  0  0  0  0  0  0  0
   -5.0590    2.2260   -1.5890 C   0  0  0  0  0  0  0  0  0  0  0  0
   -5.7450    2.1530   -2.4280 H   0  0  0  0  0  0  0  0  0  0  0  0
    2.7960   -0.6170   -0.2190 O   0  0  0  0  0  0  0  0  0  0  0  0
    1.6440   -1.4600    0.0010 C   0  0  0  0  0  0  0  0  0  0  0  0
    2.0180   -2.4880   -0.0050 H   0  0  0  0  0  0  0  0  0  0  0  0
    1.2090   -1.2580    0.9830 H   0  0  0  0  0  0  0  0  0  0  0  0
    1.9800    0.9900    1.2170 O   0  0  0  0  0  0  0  0  0  0  0  0
    4.0820    1.3020    0.1290 C   0  0  0  0  0  0  0  0  0  0  0  0
   -4.9010    4.1860    1.3320 O   0  0  0  0  0  0  0  0  0  0  0  0
   -5.7130    4.5450    0.9330 H   0  0  0  0  0  0  0  0  0  0  0  0
   -0.7350   -3.3700    2.0960 C   0  0  0  0  0  0  0  0  0  0  0  0
   -0.2980   -4.3700    2.1860 H   0  0  0  0  0  0  0  0  0  0  0  0
   -1.4720   -3.2270    2.8940 H   0  0  0  0  0  0  0  0  0  0  0  0
    0.0670   -2.6500    2.2760 H   0  0  0  0  0  0  0  0  0  0  0  0
   -2.5120   -4.1510    0.5190 C   0  0  0  0  0  0  0  0  0  0  0  0
   -2.1640   -5.1850    0.6110 H   0  0  0  0  0  0  0  0  0  0  0  0
   -2.9470   -4.0530   -0.4820 H   0  0  0  0  0  0  0  0  0  0  0  0
   -3.3170   -3.9770    1.2410 H   0  0  0  0  0  0  0  0  0  0  0  0
    4.2840    2.5560    0.7220 C   0  0  0  0  0  0  0  0  0  0  0  0
    3.5320    2.9780    1.3870 H   0  0  0  0  0  0  0  0  0  0  0  0
    5.0650    0.7790   -0.7240 C   0  0  0  0  0  0  0  0  0  0  0  0
    4.9370   -0.1910   -1.1980 H   0  0  0  0  0  0  0  0  0  0  0  0
    5.4540    3.2760    0.4670 C   0  0  0  0  0  0  0  0  0  0  0  0
    5.6070    4.2470    0.9310 H   0  0  0  0  0  0  0  0  0  0  0  0
    6.2340    1.5020   -0.9750 C   0  0  0  0  0  0  0  0  0  0  0  0
    6.9950    1.0920   -1.6340 H   0  0  0  0  0  0  0  0  0  0  0  0
    6.4280    2.7480   -0.3800 C   0  0  0  0  0  0  0  0  0  0  0  0
    7.3390    3.3080   -0.5750 H   0  0  0  0  0  0  0  0  0  0  0  0
   -1.6320    0.1600   -2.1340 H   0  0  0  0  0  0  0  0  0  0  0  0
   -2.6670   -1.8340   -1.2670 H   0  0  0  0  0  0  0  0  0  0  0  0
   -0.6040   -2.6450   -2.2240 H   0  0  0  0  0  0  0  0  0  0  0  0
    1.1550   -1.2220   -2.0810 H   0  0  0  0  0  0  0  0  0  0  0  0
  1  2  1  0  0  0  0
  1  4  1  0  0  0  0
  1  8  1  0  0  0  0
  2  3  1  0  0  0  0
  2 10  1  0  0  0  0
  2 47  1  0  0  0  0
  3  7  1  0  0  0  0
  3 12  1  0  0  0  0
  3 48  1  0  0  0  0
  4  5  2  0  0  0  0
  4 15  1  0  0  0  0
  5  6  1  0  0  0  0
  5 16  1  0  0  0  0
  6  8  2  0  0  0  0
  7 11  1  0  0  0  0
  7 13  1  0  0  0  0
  7 49  1  0  0  0  0
  8  9  1  0  0  0  0
 10 11  1  0  0  0  0
 11 22  1  0  0  0  0
 11 50  1  0  0  0  0
 12 14  1  0  0  0  0
 13 14  1  0  0  0  0
 14 29  1  0  0  0  0
 14 33  1  0  0  0  0
 15 19  2  0  0  0  0
 16 17  2  0  0  0  0
 16 27  1  0  0  0  0
 17 19  1  0  0  0  0
 18 21  1  0  0  0  0
 18 25  2  0  0  0  0
 18 26  1  0  0  0  0
 19 20  1  0  0  0  0
 21 22  1  0  0  0  0
 22 23  1  0  0  0  0
 22 24  1  0  0  0  0
 26 37  2  0  0  0  0
 26 39  1  0  0  0  0
 27 28  1  0  0  0  0
 29 30  1  0  0  0  0
 29 31  1  0  0  0  0
 29 32  1  0  0  0  0
 33 34  1  0  0  0  0
 33 35  1  0  0  0  0
 33 36  1  0  0  0  0
 37 38  1  0  0  0  0
 37 41  1  0  0  0  0
 39 40  1  0  0  0  0
 39 43  2  0  0  0  0
 41 42  1  0  0  0  0
 41 45  2  0  0  0  0
 43 44  1  0  0  0  0
 43 45  1  0  0  0  0
 45 46  1  0  0  0  0
M  END
>  <IDNUMBER>
AE-848/20954002

>  <NAME>
[6-(6-hydroxy-9H-purin-9-yl)-2,2-dimethyltetrahydrofuro[3,4-d][1,3]dioxol-4-yl]methyl benzoate

>  <ADD_INFO>
http://www.specs.net/enter.php?specsid=AE-848/20954002

>  <H_ACCEPTORS>
9

>  <H_DONORS>
1

>  <ROTATABLE_BONDS>
5

>  <LOGP>
2.3499999

>  <LOGS>
-4.21

>  <TPSA>
117.82

>  <PRICE>
N04

$$$$
AE-848/21020024
  MOE2011           3D

 49 51  0  0  1  0  0  0  0  0999 V2000
   -2.6930    0.0740    1.1220 C   0  0  3  0  0  0  0  0  0  0  0  0
   -3.2930   -0.3500   -0.1940 C   0  0  3  0  0  0  0  0  0  0  0  0
   -3.4870   -1.2240    1.0400 C   0  0  0  0  0  0  0  0  0  0  0  0
    5.5640    2.3360    0.7190 N   0  3  0  0  0  0  0  0  0  0  0  0
    5.9290   -2.4320   -0.5540 N   0  3  0  0  0  0  0  0  0  0  0  0
   -0.6350    0.9230   -0.0530 C   0  0  1  0  0  0  0  0  0  0  0  0
   -1.1970    0.1560    1.1740 C   0  0  0  0  0  0  0  0  0  0  0  0
   -0.7510   -0.8370    1.2560 H   0  0  0  0  0  0  0  0  0  0  0  0
   -0.8920    0.6580    2.1020 H   0  0  0  0  0  0  0  0  0  0  0  0
    4.9280    1.0690    0.3360 C   0  0  0  0  0  0  0  0  0  0  0  0
    5.1070   -1.2550   -0.2750 C   0  0  0  0  0  0  0  0  0  0  0  0
    1.4450   -0.3750   -0.2070 C   0  0  0  0  0  0  0  0  0  0  0  0
   -2.3330   -0.6490   -1.3090 C   0  0  0  0  0  0  0  0  0  0  0  0
   -2.8850   -0.7540   -2.2500 H   0  0  0  0  0  0  0  0  0  0  0  0
   -1.8520   -1.6180   -1.1460 H   0  0  0  0  0  0  0  0  0  0  0  0
    2.9210   -0.2220   -0.1070 C   0  0  0  0  0  0  0  0  0  0  0  0
    0.8320    0.8210   -0.0490 O   0  0  0  0  0  0  0  0  0  0  0  0
    5.7280   -0.0490    0.0730 C   0  0  0  0  0  0  0  0  0  0  0  0
    6.8130    0.0150    0.1410 H   0  0  0  0  0  0  0  0  0  0  0  0
   -1.2260    0.4230   -1.4320 C   0  0  1  0  0  0  0  0  0  0  0  0
    3.7130   -1.3510   -0.3640 C   0  0  0  0  0  0  0  0  0  0  0  0
    3.2370   -2.2940   -0.6350 H   0  0  0  0  0  0  0  0  0  0  0  0
    3.5290    0.9940    0.2450 C   0  0  0  0  0  0  0  0  0  0  0  0
    2.9170    1.8700    0.4530 H   0  0  0  0  0  0  0  0  0  0  0  0
    6.7850    2.3260    0.9280 O   0  5  0  0  0  0  0  0  0  0  0  0
    5.3840   -3.5430   -0.5190 O   0  5  0  0  0  0  0  0  0  0  0  0
    7.1270   -2.2420   -0.8040 O   0  0  0  0  0  0  0  0  0  0  0  0
    4.8400    3.3370    0.8130 O   0  0  0  0  0  0  0  0  0  0  0  0
    0.9050   -1.4500   -0.4080 O   0  0  0  0  0  0  0  0  0  0  0  0
   -2.8090   -2.5660    1.1600 C   0  0  0  0  0  0  0  0  0  0  0  0
   -3.4060   -3.3320    0.6550 H   0  0  0  0  0  0  0  0  0  0  0  0
   -2.7190   -2.8460    2.2150 H   0  0  0  0  0  0  0  0  0  0  0  0
   -1.8060   -2.6030    0.7310 H   0  0  0  0  0  0  0  0  0  0  0  0
   -4.8650   -1.2170    1.6650 C   0  0  0  0  0  0  0  0  0  0  0  0
   -5.5090   -1.9510    1.1700 H   0  0  0  0  0  0  0  0  0  0  0  0
   -5.3490   -0.2370    1.5830 H   0  0  0  0  0  0  0  0  0  0  0  0
   -4.8020   -1.4720    2.7280 H   0  0  0  0  0  0  0  0  0  0  0  0
   -1.5160    1.4960   -2.3480 O   0  0  0  0  0  0  0  0  0  0  0  0
   -0.8570    2.4320    0.1750 C   0  0  0  0  0  0  0  0  0  0  0  0
   -1.9130    2.6920    0.2770 H   0  0  0  0  0  0  0  0  0  0  0  0
   -0.4200    3.0240   -0.6360 H   0  0  0  0  0  0  0  0  0  0  0  0
   -0.3460    2.7620    1.0880 H   0  0  0  0  0  0  0  0  0  0  0  0
   -2.8440    1.9930   -2.3910 C   0  0  0  0  0  0  0  0  0  0  0  0
   -2.8380    2.9160   -2.9770 H   0  0  0  0  0  0  0  0  0  0  0  0
   -3.2290    2.2260   -1.3970 H   0  0  0  0  0  0  0  0  0  0  0  0
   -3.5040    1.2850   -2.8990 H   0  0  0  0  0  0  0  0  0  0  0  0
   -3.1530    0.9210    1.6230 H   0  0  0  0  0  0  0  0  0  0  0  0
   -4.1560    0.2020   -0.5500 H   0  0  0  0  0  0  0  0  0  0  0  0
   -0.4160   -0.0830   -1.9680 H   0  0  0  0  0  0  0  0  0  0  0  0
  1  2  1  0  0  0  0
  1  3  1  0  0  0  0
  1  7  1  0  0  0  0
  1 47  1  0  0  0  0
  2  3  1  0  0  0  0
  2 13  1  0  0  0  0
  2 48  1  0  0  0  0
  3 30  1  0  0  0  0
  3 34  1  0  0  0  0
  4 10  1  0  0  0  0
  4 25  1  0  0  0  0
  4 28  2  0  0  0  0
  5 11  1  0  0  0  0
  5 26  1  0  0  0  0
  5 27  2  0  0  0  0
  6  7  1  0  0  0  0
  6 17  1  0  0  0  0
  6 20  1  0  0  0  0
  6 39  1  0  0  0  0
  7  8  1  0  0  0  0
  7  9  1  0  0  0  0
 10 18  2  0  0  0  0
 10 23  1  0  0  0  0
 11 18  1  0  0  0  0
 11 21  2  0  0  0  0
 12 16  1  0  0  0  0
 12 17  1  0  0  0  0
 12 29  2  0  0  0  0
 13 14  1  0  0  0  0
 13 15  1  0  0  0  0
 13 20  1  0  0  0  0
 16 21  1  0  0  0  0
 16 23  2  0  0  0  0
 18 19  1  0  0  0  0
 20 38  1  0  0  0  0
 20 49  1  0  0  0  0
 21 22  1  0  0  0  0
 23 24  1  0  0  0  0
 30 31  1  0  0  0  0
 30 32  1  0  0  0  0
 30 33  1  0  0  0  0
 34 35  1  0  0  0  0
 34 36  1  0  0  0  0
 34 37  1  0  0  0  0
 38 43  1  0  0  0  0
 39 40  1  0  0  0  0
 39 41  1  0  0  0  0
 39 42  1  0  0  0  0
 43 44  1  0  0  0  0
 43 45  1  0  0  0  0
 43 46  1  0  0  0  0
M  CHG  1   4   1
M  CHG  1   5   1
M  CHG  1  25  -1
M  CHG  1  26  -1
M  END
>  <IDNUMBER>
AE-848/21020024

>  <NAME>
4-methoxy-3,7,7-trimethylbicyclo[4.1.0]hept-3-yl 3,5-dinitrobenzoate

>  <ADD_INFO>
http://www.specs.net/enter.php?specsid=AE-848/21020024

>  <H_ACCEPTORS>
3

>  <H_DONORS>
0

>  <ROTATABLE_BONDS>
6

>  <LOGP>
4.4499998

>  <LOGS>
-6.1500001

>  <TPSA>
121.81

>  <PRICE>
N05

$$$$
AE-848/21020030
  MOE2011           3D

 46 48  0  0  1  0  0  0  0  0999 V2000
   -3.3630    0.2450   -0.4800 C   0  0  3  0  0  0  0  0  0  0  0  0
   -2.6350    0.4810    0.8370 C   0  0  3  0  0  0  0  0  0  0  0  0
   -4.0630    0.9320    0.6650 C   0  0  0  0  0  0  0  0  0  0  0  0
    6.2980    2.1670   -0.0720 N   0  3  0  0  0  0  0  0  0  0  0  0
    4.9770   -2.5820    0.4500 N   0  3  0  0  0  0  0  0  0  0  0  0
   -3.0170   -1.1450   -0.8850 C   0  0  0  0  0  0  0  0  0  0  0  0
   -3.4440   -1.3490   -1.8730 H   0  0  0  0  0  0  0  0  0  0  0  0
   -3.4600   -1.8740   -0.1960 H   0  0  0  0  0  0  0  0  0  0  0  0
    5.2660    1.1240   -0.0880 C   0  0  0  0  0  0  0  0  0  0  0  0
    4.6230   -1.1860    0.1670 C   0  0  0  0  0  0  0  0  0  0  0  0
   -1.2780    0.9730    0.4800 C   0  0  0  0  0  0  0  0  0  0  0  0
   -0.6240    0.9170    1.3580 H   0  0  0  0  0  0  0  0  0  0  0  0
   -1.3010    2.0260    0.1780 H   0  0  0  0  0  0  0  0  0  0  0  0
    1.5490    0.8870   -0.6790 C   0  0  0  0  0  0  0  0  0  0  0  0
   -1.4470   -1.2790   -0.9180 C   0  0  2  0  0  0  0  0  0  0  0  0
   -0.7020    0.1050   -0.6860 C   0  0  2  0  0  0  0  0  0  0  0  0
    2.9470    0.4770   -0.3810 C   0  0  0  0  0  0  0  0  0  0  0  0
    5.6220   -0.2030    0.1840 C   0  0  0  0  0  0  0  0  0  0  0  0
    6.6550   -0.4660    0.4050 H   0  0  0  0  0  0  0  0  0  0  0  0
    0.7040   -0.1460   -0.4490 O   0  0  0  0  0  0  0  0  0  0  0  0
    3.2900   -0.8560   -0.1140 C   0  0  0  0  0  0  0  0  0  0  0  0
    2.5240   -1.6300   -0.1290 H   0  0  0  0  0  0  0  0  0  0  0  0
    3.9370    1.4700   -0.3720 C   0  0  0  0  0  0  0  0  0  0  0  0
    3.6630    2.5030   -0.5840 H   0  0  0  0  0  0  0  0  0  0  0  0
    7.4710    1.8080    0.0940 O   0  5  0  0  0  0  0  0  0  0  0  0
    6.1540   -2.8270    0.7430 O   0  5  0  0  0  0  0  0  0  0  0  0
    4.0770   -3.4300    0.3790 O   0  0  0  0  0  0  0  0  0  0  0  0
    5.9350    3.3410   -0.2220 O   0  0  0  0  0  0  0  0  0  0  0  0
    1.2450    2.0090   -1.0480 O   0  0  0  0  0  0  0  0  0  0  0  0
   -4.3210    2.4120    0.5670 C   0  0  0  0  0  0  0  0  0  0  0  0
   -4.3750    2.8550    1.5670 H   0  0  0  0  0  0  0  0  0  0  0  0
   -5.2710    2.5990    0.0560 H   0  0  0  0  0  0  0  0  0  0  0  0
   -3.5370    2.9350    0.0100 H   0  0  0  0  0  0  0  0  0  0  0  0
   -5.1490    0.1690    1.3770 C   0  0  0  0  0  0  0  0  0  0  0  0
   -5.2890    0.5630    2.3890 H   0  0  0  0  0  0  0  0  0  0  0  0
   -4.9200   -0.8980    1.4650 H   0  0  0  0  0  0  0  0  0  0  0  0
   -6.0970    0.2650    0.8370 H   0  0  0  0  0  0  0  0  0  0  0  0
   -1.0750   -1.7370   -2.2330 O   0  0  0  0  0  0  0  0  0  0  0  0
   -1.5140   -2.5920   -2.3890 H   0  0  0  0  0  0  0  0  0  0  0  0
   -0.9740   -2.3610    0.0650 C   0  0  0  0  0  0  0  0  0  0  0  0
   -1.1280   -2.0690    1.1070 H   0  0  0  0  0  0  0  0  0  0  0  0
    0.0870   -2.5920   -0.0780 H   0  0  0  0  0  0  0  0  0  0  0  0
   -1.5100   -3.3020   -0.1100 H   0  0  0  0  0  0  0  0  0  0  0  0
   -3.2080    0.9050   -1.3340 H   0  0  0  0  0  0  0  0  0  0  0  0
   -2.5340   -0.3180    1.5700 H   0  0  0  0  0  0  0  0  0  0  0  0
   -0.7880    0.6720   -1.6250 H   0  0  0  0  0  0  0  0  0  0  0  0
  1  2  1  0  0  0  0
  1  3  1  0  0  0  0
  1  6  1  0  0  0  0
  1 44  1  0  0  0  0
  2  3  1  0  0  0  0
  2 11  1  0  0  0  0
  2 45  1  0  0  0  0
  3 30  1  0  0  0  0
  3 34  1  0  0  0  0
  4  9  1  0  0  0  0
  4 25  1  0  0  0  0
  4 28  2  0  0  0  0
  5 10  1  0  0  0  0
  5 26  1  0  0  0  0
  5 27  2  0  0  0  0
  6  7  1  0  0  0  0
  6  8  1  0  0  0  0
  6 15  1  0  0  0  0
  9 18  2  0  0  0  0
  9 23  1  0  0  0  0
 10 18  1  0  0  0  0
 10 21  2  0  0  0  0
 11 12  1  0  0  0  0
 11 13  1  0  0  0  0
 11 16  1  0  0  0  0
 14 17  1  0  0  0  0
 14 20  1  0  0  0  0
 14 29  2  0  0  0  0
 15 16  1  0  0  0  0
 15 38  1  0  0  0  0
 15 40  1  0  0  0  0
 16 20  1  0  0  0  0
 16 46  1  0  0  0  0
 17 21  1  0  0  0  0
 17 23  2  0  0  0  0
 18 19  1  0  0  0  0
 21 22  1  0  0  0  0
 23 24  1  0  0  0  0
 30 31  1  0  0  0  0
 30 32  1  0  0  0  0
 30 33  1  0  0  0  0
 34 35  1  0  0  0  0
 34 36  1  0  0  0  0
 34 37  1  0  0  0  0
 38 39  1  0  0  0  0
 40 41  1  0  0  0  0
 40 42  1  0  0  0  0
 40 43  1  0  0  0  0
M  CHG  1   4   1
M  CHG  1   5   1
M  CHG  1  25  -1
M  CHG  1  26  -1
M  END
>  <IDNUMBER>
AE-848/21020030

>  <NAME>
4-hydroxy-4,7,7-trimethylbicyclo[4.1.0]hept-3-yl 3,5-dinitrobenzoate

>  <ADD_INFO>
http://www.specs.net/enter.php?specsid=AE-848/21020030

>  <H_ACCEPTORS>
3

>  <H_DONORS>
1

>  <ROTATABLE_BONDS>
5

>  <LOGP>
3.75

>  <LOGS>
-5.4499998

>  <TPSA>
132.81

>  <PRICE>
N05

$$$$
AE-848/21021038
  MOE2011           3D

 21 22  0  0  0  0  0  0  0  0999 V2000
    1.8030    0.4500    0.0050 C   0  0  0  0  0  0  0  0  0  0  0  0
    1.6270   -0.8910    0.0030 C   0  0  0  0  0  0  0  0  0  0  0  0
    0.6060    1.3320    0.0130 C   0  0  0  0  0  0  0  0  0  0  0  0
   -0.7060    0.6770    0.0060 C   0  0  0  0  0  0  0  0  0  0  0  0
    0.3680   -1.4840    0.0090 O   0  0  0  0  0  0  0  0  0  0  0  0
   -0.7540   -0.7080    0.0040 C   0  0  0  0  0  0  0  0  0  0  0  0
   -1.8850    1.4300    0.0020 C   0  0  0  0  0  0  0  0  0  0  0  0
   -1.8440    2.5170    0.0030 H   0  0  0  0  0  0  0  0  0  0  0  0
    3.1750    1.0240    0.0000 C   0  0  0  0  0  0  0  0  0  0  0  0
    4.0050    0.3040    0.0270 H   0  0  0  0  0  0  0  0  0  0  0  0
    0.6650    2.5550    0.0270 O   0  0  0  0  0  0  0  0  0  0  0  0
    2.6060   -1.8440   -0.0070 N   0  0  0  0  0  0  0  0  0  0  0  0
    3.5960   -1.6510   -0.0190 H   0  0  0  0  0  0  0  0  0  0  0  0
    2.3030   -2.8120   -0.0020 H   0  0  0  0  0  0  0  0  0  0  0  0
   -1.9860   -1.3640   -0.0010 C   0  0  0  0  0  0  0  0  0  0  0  0
   -2.0270   -2.4500   -0.0020 H   0  0  0  0  0  0  0  0  0  0  0  0
    3.4280    2.2220   -0.0310 O   0  0  0  0  0  0  0  0  0  0  0  0
   -3.1130    0.7710   -0.0050 C   0  0  0  0  0  0  0  0  0  0  0  0
   -3.1690   -0.6230   -0.0070 C   0  0  0  0  0  0  0  0  0  0  0  0
   -4.1270   -1.1380   -0.0120 H   0  0  0  0  0  0  0  0  0  0  0  0
   -4.5720    1.6830   -0.0120 Cl  0  0  0  0  0  0  0  0  0  0  0  0
  1  2  2  0  0  0  0
  1  3  1  0  0  0  0
  1  9  1  0  0  0  0
  2  5  1  0  0  0  0
  2 12  1  0  0  0  0
  3  4  1  0  0  0  0
  3 11  2  0  0  0  0
  4  6  2  0  0  0  0
  4  7  1  0  0  0  0
  5  6  1  0  0  0  0
  6 15  1  0  0  0  0
  7  8  1  0  0  0  0
  7 18  2  0  0  0  0
  9 10  1  0  0  0  0
  9 17  2  0  0  0  0
 12 13  1  0  0  0  0
 12 14  1  0  0  0  0
 15 16  1  0  0  0  0
 15 19  2  0  0  0  0
 18 19  1  0  0  0  0
 18 21  1  0  0  0  0
 19 20  1  0  0  0  0
M  END
>  <IDNUMBER>
AE-848/21021038

>  <NAME>
chromone, derivative of

>  <ADD_INFO>
http://www.specs.net/enter.php?specsid=AE-848/21021038

>  <H_ACCEPTORS>
3

>  <H_DONORS>
1

>  <ROTATABLE_BONDS>
1

>  <LOGP>
0.88999999

>  <LOGS>
-0.58999997

>  <TPSA>
69.389999

>  <PRICE>
N05

$$$$
AE-848/21021039
  MOE2011           3D

 24 25  0  0  0  0  0  0  0  0999 V2000
   -2.3890    0.2040    0.0030 C   0  0  0  0  0  0  0  0  0  0  0  0
   -2.1990   -1.1350    0.0020 C   0  0  0  0  0  0  0  0  0  0  0  0
   -1.2000    1.0990    0.0080 C   0  0  0  0  0  0  0  0  0  0  0  0
    0.1180    0.4570    0.0040 C   0  0  0  0  0  0  0  0  0  0  0  0
   -0.9330   -1.7150    0.0060 O   0  0  0  0  0  0  0  0  0  0  0  0
    0.1810   -0.9260    0.0040 C   0  0  0  0  0  0  0  0  0  0  0  0
    1.2920    1.2200    0.0000 C   0  0  0  0  0  0  0  0  0  0  0  0
    1.2350    2.3070    0.0000 H   0  0  0  0  0  0  0  0  0  0  0  0
   -3.7670    0.7630    0.0020 C   0  0  0  0  0  0  0  0  0  0  0  0
   -4.5890    0.0340    0.0160 H   0  0  0  0  0  0  0  0  0  0  0  0
   -1.2750    2.3210    0.0160 O   0  0  0  0  0  0  0  0  0  0  0  0
   -3.1680   -2.0990   -0.0040 N   0  0  0  0  0  0  0  0  0  0  0  0
   -4.1600   -1.9190   -0.0100 H   0  0  0  0  0  0  0  0  0  0  0  0
   -2.8530   -3.0630   -0.0030 H   0  0  0  0  0  0  0  0  0  0  0  0
    1.4190   -1.5660    0.0020 C   0  0  0  0  0  0  0  0  0  0  0  0
    1.4730   -2.6520    0.0030 H   0  0  0  0  0  0  0  0  0  0  0  0
   -4.0330    1.9580   -0.0140 O   0  0  0  0  0  0  0  0  0  0  0  0
    2.5420    0.5860   -0.0030 C   0  0  0  0  0  0  0  0  0  0  0  0
    2.5960   -0.8130   -0.0010 C   0  0  0  0  0  0  0  0  0  0  0  0
    3.5540   -1.3270   -0.0020 H   0  0  0  0  0  0  0  0  0  0  0  0
    3.7970    1.4080   -0.0060 C   0  0  0  0  0  0  0  0  0  0  0  0
    4.6910    0.7760   -0.0260 H   0  0  0  0  0  0  0  0  0  0  0  0
    3.8440    2.0280    0.8950 H   0  0  0  0  0  0  0  0  0  0  0  0
    3.8230    2.0540   -0.8890 H   0  0  0  0  0  0  0  0  0  0  0  0
  1  2  2  0  0  0  0
  1  3  1  0  0  0  0
  1  9  1  0  0  0  0
  2  5  1  0  0  0  0
  2 12  1  0  0  0  0
  3  4  1  0  0  0  0
  3 11  2  0  0  0  0
  4  6  2  0  0  0  0
  4  7  1  0  0  0  0
  5  6  1  0  0  0  0
  6 15  1  0  0  0  0
  7  8  1  0  0  0  0
  7 18  2  0  0  0  0
  9 10  1  0  0  0  0
  9 17  2  0  0  0  0
 12 13  1  0  0  0  0
 12 14  1  0  0  0  0
 15 16  1  0  0  0  0
 15 19  2  0  0  0  0
 18 19  1  0  0  0  0
 18 21  1  0  0  0  0
 19 20  1  0  0  0  0
 21 22  1  0  0  0  0
 21 23  1  0  0  0  0
 21 24  1  0  0  0  0
M  END
>  <IDNUMBER>
AE-848/21021039

>  <NAME>
chromone, derivative of

>  <ADD_INFO>
http://www.specs.net/enter.php?specsid=AE-848/21021039

>  <H_ACCEPTORS>
3

>  <H_DONORS>
1

>  <ROTATABLE_BONDS>
1

>  <LOGP>
-0.07

>  <LOGS>
0.38

>  <TPSA>
69.389999

>  <PRICE>
N05

$$$$
AE-848/32494064
  MOE2011           3D

 54 57  0  0  1  0  0  0  0  0999 V2000
   -2.3630    0.6900   -0.0460 C   0  0  3  0  0  0  0  0  0  0  0  0
   -1.6130   -0.5150   -0.7150 C   0  0  3  0  0  0  0  0  0  0  0  0
    2.1260    0.5080   -0.0690 C   0  0  3  0  0  0  0  0  0  0  0  0
    2.4650   -0.5960    0.9310 C   0  0  0  0  0  0  0  0  0  0  0  0
    0.5640    0.6710   -0.2350 C   0  0  3  0  0  0  0  0  0  0  0  0
   -0.1370   -0.7040   -0.3090 C   0  0  3  0  0  0  0  0  0  0  0  0
   -3.6710    0.0390    0.4640 C   0  0  3  0  0  0  0  0  0  0  0  0
   -2.5240   -1.7450   -0.5460 C   0  0  0  0  0  0  0  0  0  0  0  0
   -2.3200   -2.3050    0.3730 H   0  0  0  0  0  0  0  0  0  0  0  0
   -2.4260   -2.4490   -1.3780 H   0  0  0  0  0  0  0  0  0  0  0  0
    1.5540   -1.4620    1.4120 C   0  0  0  0  0  0  0  0  0  0  0  0
    1.8640   -2.2440    2.1020 H   0  0  0  0  0  0  0  0  0  0  0  0
   -3.9170   -1.1390   -0.4770 C   0  0  3  0  0  0  0  0  0  0  0  0
   -1.5790    1.2950    1.1280 C   0  0  0  0  0  0  0  0  0  0  0  0
   -2.0550    2.2230    1.4710 H   0  0  0  0  0  0  0  0  0  0  0  0
   -1.6360    0.6240    1.9940 H   0  0  0  0  0  0  0  0  0  0  0  0
    0.1200   -1.5130    0.9760 C   0  0  0  0  0  0  0  0  0  0  0  0
   -0.1270   -2.5640    0.7830 H   0  0  0  0  0  0  0  0  0  0  0  0
   -0.5120   -1.1920    1.8070 H   0  0  0  0  0  0  0  0  0  0  0  0
   -0.0980    1.5650    0.8480 C   0  0  0  0  0  0  0  0  0  0  0  0
    0.4280    1.4710    1.8050 H   0  0  0  0  0  0  0  0  0  0  0  0
    0.0130    2.6140    0.5430 H   0  0  0  0  0  0  0  0  0  0  0  0
    2.7790    0.1140   -1.4360 C   0  0  0  0  0  0  0  0  0  0  0  0
    2.0220   -0.2190   -2.1570 H   0  0  0  0  0  0  0  0  0  0  0  0
    3.2320    1.0010   -1.8980 H   0  0  0  0  0  0  0  0  0  0  0  0
    3.9410   -0.7940    1.2050 C   0  0  0  0  0  0  0  0  0  0  0  0
    4.0930   -1.7270    1.7630 H   0  0  0  0  0  0  0  0  0  0  0  0
    4.3140    0.0130    1.8460 H   0  0  0  0  0  0  0  0  0  0  0  0
   -4.8500    0.9270    0.5030 N   0  3  0  0  0  0  0  0  0  0  0  0
   -4.7330    1.6990    1.1710 H   0  0  0  0  0  0  0  0  0  0  0  0
   -5.6630    0.3700    0.8070 H   0  0  0  0  0  0  0  0  0  0  0  0
   -5.0930    1.3250   -0.4130 H   0  0  0  0  0  0  0  0  0  0  0  0
   -2.6170    1.7890   -1.1020 C   0  0  0  0  0  0  0  0  0  0  0  0
   -1.6820    2.1540   -1.5380 H   0  0  0  0  0  0  0  0  0  0  0  0
   -3.1270    2.6540   -0.6660 H   0  0  0  0  0  0  0  0  0  0  0  0
   -3.2360    1.4170   -1.9270 H   0  0  0  0  0  0  0  0  0  0  0  0
   -4.8760   -2.0130    0.0850 O   0  0  0  0  0  0  0  0  0  0  0  0
   -4.8760   -2.8360   -0.4400 H   0  0  0  0  0  0  0  0  0  0  0  0
    3.8520   -0.9920   -1.3500 C   0  0  0  0  0  0  0  0  0  0  0  0
    4.4620   -0.9530   -2.2600 H   0  0  0  0  0  0  0  0  0  0  0  0
    3.3510   -1.9690   -1.3460 H   0  0  0  0  0  0  0  0  0  0  0  0
    4.7440   -0.8850   -0.1080 C   0  0  3  0  0  0  0  0  0  0  0  0
    2.7320    1.8660    0.3740 C   0  0  0  0  0  0  0  0  0  0  0  0
    2.3530    2.6830   -0.2510 H   0  0  0  0  0  0  0  0  0  0  0  0
    3.8210    1.8910    0.2860 H   0  0  0  0  0  0  0  0  0  0  0  0
    2.5020    2.1010    1.4190 H   0  0  0  0  0  0  0  0  0  0  0  0
    5.5830    0.2630   -0.2290 O   0  0  0  0  0  0  0  0  0  0  0  0
    6.1020    0.1640   -1.0460 H   0  0  0  0  0  0  0  0  0  0  0  0
   -1.5920   -0.3170   -1.7990 H   0  0  0  0  0  0  0  0  0  0  0  0
    0.4000    1.1810   -1.1950 H   0  0  0  0  0  0  0  0  0  0  0  0
    0.3220   -1.2810   -1.1250 H   0  0  0  0  0  0  0  0  0  0  0  0
   -3.5650   -0.3330    1.4910 H   0  0  0  0  0  0  0  0  0  0  0  0
   -4.2640   -0.8140   -1.4650 H   0  0  0  0  0  0  0  0  0  0  0  0
    5.4120   -1.7530   -0.0600 H   0  0  0  0  0  0  0  0  0  0  0  0
  1  2  1  0  0  0  0
  1  7  1  0  0  0  0
  1 14  1  0  0  0  0
  1 33  1  0  0  0  0
  2  6  1  0  0  0  0
  2  8  1  0  0  0  0
  2 49  1  0  0  0  0
  3  4  1  0  0  0  0
  3  5  1  0  0  0  0
  3 23  1  0  0  0  0
  3 43  1  0  0  0  0
  4 11  2  0  0  0  0
  4 26  1  0  0  0  0
  5  6  1  0  0  0  0
  5 20  1  0  0  0  0
  5 50  1  0  0  0  0
  6 17  1  0  0  0  0
  6 51  1  0  0  0  0
  7 13  1  0  0  0  0
  7 29  1  0  0  0  0
  7 52  1  0  0  0  0
  8  9  1  0  0  0  0
  8 10  1  0  0  0  0
  8 13  1  0  0  0  0
 11 12  1  0  0  0  0
 11 17  1  0  0  0  0
 13 37  1  0  0  0  0
 13 53  1  0  0  0  0
 14 15  1  0  0  0  0
 14 16  1  0  0  0  0
 14 20  1  0  0  0  0
 17 18  1  0  0  0  0
 17 19  1  0  0  0  0
 20 21  1  0  0  0  0
 20 22  1  0  0  0  0
 23 24  1  0  0  0  0
 23 25  1  0  0  0  0
 23 39  1  0  0  0  0
 26 27  1  0  0  0  0
 26 28  1  0  0  0  0
 26 42  1  0  0  0  0
 29 30  1  0  0  0  0
 29 31  1  0  0  0  0
 29 32  1  0  0  0  0
 33 34  1  0  0  0  0
 33 35  1  0  0  0  0
 33 36  1  0  0  0  0
 37 38  1  0  0  0  0
 39 40  1  0  0  0  0
 39 41  1  0  0  0  0
 39 42  1  0  0  0  0
 42 47  1  0  0  0  0
 42 54  1  0  0  0  0
 43 44  1  0  0  0  0
 43 45  1  0  0  0  0
 43 46  1  0  0  0  0
 47 48  1  0  0  0  0
M  CHG  1  29   1
M  END
>  <IDNUMBER>
AE-848/32494064

>  <NAME>
Derivative of Androst-5-ene-3,16,17-triol

>  <ADD_INFO>
http://www.specs.net/enter.php?specsid=AE-848/32494064

>  <H_ACCEPTORS>
3

>  <H_DONORS>
3

>  <ROTATABLE_BONDS>
0

>  <LOGP>
2.3499999

>  <LOGS>
-2.4300001

>  <TPSA>
66.480003

>  <PRICE>
N05

>  <SALTDATA>
HCl

$$$$
AE-848/32605045
  MOE2011           3D

 32 34  0  0  1  0  0  0  0  0999 V2000
   -2.3070    0.6090    0.0970 C   0  0  0  0  0  0  0  0  0  0  0  0
   -1.4770    1.8130    0.2440 C   0  0  0  0  0  0  0  0  0  0  0  0
   -1.6860   -0.6390    0.0640 C   0  0  0  0  0  0  0  0  0  0  0  0
   -0.3270   -0.8030    0.1250 O   0  0  0  0  0  0  0  0  0  0  0  0
   -3.7000    0.7080    0.0320 C   0  0  0  0  0  0  0  0  0  0  0  0
   -0.0010    1.6040    0.4230 C   0  0  0  0  0  0  0  0  0  0  0  0
    0.5320    2.4790    0.0360 H   0  0  0  0  0  0  0  0  0  0  0  0
    0.1950    1.5140    1.4980 H   0  0  0  0  0  0  0  0  0  0  0  0
    0.4040    0.3460   -0.3410 C   0  0  3  0  0  0  0  0  0  0  0  0
   -2.4620   -1.7970   -0.0030 C   0  0  0  0  0  0  0  0  0  0  0  0
   -1.9740   -2.7660   -0.0130 H   0  0  0  0  0  0  0  0  0  0  0  0
   -4.4770   -0.4410   -0.0560 C   0  0  0  0  0  0  0  0  0  0  0  0
   -5.5590   -0.3700   -0.1060 H   0  0  0  0  0  0  0  0  0  0  0  0
   -3.8520   -1.6860   -0.0690 C   0  0  0  0  0  0  0  0  0  0  0  0
    1.8910    0.0820   -0.1870 C   0  0  0  0  0  0  0  0  0  0  0  0
   -2.0270    2.9130    0.2720 O   0  0  0  0  0  0  0  0  0  0  0  0
    2.7840    0.4860   -1.1930 C   0  0  0  0  0  0  0  0  0  0  0  0
    2.4160    0.9730   -2.0940 H   0  0  0  0  0  0  0  0  0  0  0  0
    2.4070   -0.5330    0.9650 C   0  0  0  0  0  0  0  0  0  0  0  0
    1.7410   -0.8520    1.7640 H   0  0  0  0  0  0  0  0  0  0  0  0
   -4.3420    1.9180    0.0640 O   0  0  0  0  0  0  0  0  0  0  0  0
   -3.6460    2.6160    0.1490 H   0  0  0  0  0  0  0  0  0  0  0  0
    4.6450   -0.3460    0.0910 C   0  0  0  0  0  0  0  0  0  0  0  0
    3.7800   -0.7490    1.1020 C   0  0  0  0  0  0  0  0  0  0  0  0
    4.1720   -1.2290    1.9940 H   0  0  0  0  0  0  0  0  0  0  0  0
    4.1590    0.2710   -1.0570 C   0  0  0  0  0  0  0  0  0  0  0  0
    4.8270    0.5900   -1.8520 H   0  0  0  0  0  0  0  0  0  0  0  0
   -4.6470   -2.7920   -0.1470 O   0  0  0  0  0  0  0  0  0  0  0  0
   -4.0870   -3.5860   -0.1530 H   0  0  0  0  0  0  0  0  0  0  0  0
    5.9800   -0.5730    0.2650 O   0  0  0  0  0  0  0  0  0  0  0  0
    6.4560   -0.2190   -0.5040 H   0  0  0  0  0  0  0  0  0  0  0  0
    0.1810    0.4590   -1.4120 H   0  0  0  0  0  0  0  0  0  0  0  0
  1  2  1  0  0  0  0
  1  3  2  0  0  0  0
  1  5  1  0  0  0  0
  2  6  1  0  0  0  0
  2 16  2  0  0  0  0
  3  4  1  0  0  0  0
  3 10  1  0  0  0  0
  4  9  1  0  0  0  0
  5 12  2  0  0  0  0
  5 21  1  0  0  0  0
  6  7  1  0  0  0  0
  6  8  1  0  0  0  0
  6  9  1  0  0  0  0
  9 15  1  0  0  0  0
  9 32  1  0  0  0  0
 10 11  1  0  0  0  0
 10 14  2  0  0  0  0
 12 13  1  0  0  0  0
 12 14  1  0  0  0  0
 14 28  1  0  0  0  0
 15 17  2  0  0  0  0
 15 19  1  0  0  0  0
 17 18  1  0  0  0  0
 17 26  1  0  0  0  0
 19 20  1  0  0  0  0
 19 24  2  0  0  0  0
 21 22  1  0  0  0  0
 23 24  1  0  0  0  0
 23 26  2  0  0  0  0
 23 30  1  0  0  0  0
 24 25  1  0  0  0  0
 26 27  1  0  0  0  0
 28 29  1  0  0  0  0
 30 31  1  0  0  0  0
M  END
>  <IDNUMBER>
AE-848/32605045

>  <NAME>
5,7-dihydroxy-2-(4-hydroxyphenyl)-2,3-dihydro-4H-chromen-4-one

>  <ADD_INFO>
http://www.specs.net/enter.php?specsid=AE-848/32605045

>  <H_ACCEPTORS>
1

>  <H_DONORS>
3

>  <ROTATABLE_BONDS>
1

>  <LOGP>
2.52

>  <LOGS>
-2.76

>  <TPSA>
86.989998

>  <PRICE>
N07

$$$$
AF-291/20009004
  MOE2011           3D

 95100  0  0  1  0  0  0  0  0999 V2000
   -2.2580   -0.4250   -0.0830 C   0  0  2  0  0  0  0  0  0  0  0  0
    0.5400    0.6160    0.6540 C   0  0  3  0  0  0  0  0  0  0  0  0
   -1.2980   -1.0900    0.9500 C   0  0  3  0  0  0  0  0  0  0  0  0
    2.0850    0.8990    0.4480 C   0  0  2  0  0  0  0  0  0  0  0  0
    0.2160   -0.9040    0.7560 C   0  0  3  0  0  0  0  0  0  0  0  0
   -1.9090    1.0910   -0.1100 C   0  0  2  0  0  0  0  0  0  0  0  0
   -0.3950    1.3030   -0.3810 C   0  0  0  0  0  0  0  0  0  0  0  0
   -0.1380    0.9740   -1.3930 H   0  0  0  0  0  0  0  0  0  0  0  0
   -0.2110    2.3780   -0.3620 H   0  0  0  0  0  0  0  0  0  0  0  0
   -3.6230   -0.8570    0.5750 C   0  0  3  0  0  0  0  0  0  0  0  0
   -3.0030    2.7870    1.3170 C   0  0  0  0  0  0  0  0  0  0  0  0
    7.2240    0.4010   -0.4030 C   0  0  0  0  0  0  0  0  0  0  0  0
   -2.2410    1.6730    1.1820 O   0  0  0  0  0  0  0  0  0  0  0  0
    2.6760    0.0040   -0.6760 C   0  0  3  0  0  0  0  0  0  0  0  0
   -1.8350   -2.5010    1.1290 C   0  0  0  0  0  0  0  0  0  0  0  0
   -1.4620   -3.1930    0.3680 H   0  0  0  0  0  0  0  0  0  0  0  0
   -1.5700   -2.9150    2.1070 H   0  0  0  0  0  0  0  0  0  0  0  0
    2.8350    0.6480    1.7970 C   0  0  0  0  0  0  0  0  0  0  0  0
    2.8560    1.5820    2.3750 H   0  0  0  0  0  0  0  0  0  0  0  0
    2.2840   -0.0530    2.4340 H   0  0  0  0  0  0  0  0  0  0  0  0
   -3.3520   -2.3360    0.9830 C   0  0  0  0  0  0  0  0  0  0  0  0
   -3.8630   -2.5800    1.9200 H   0  0  0  0  0  0  0  0  0  0  0  0
   -3.7030   -3.0350    0.2170 H   0  0  0  0  0  0  0  0  0  0  0  0
    0.8450   -1.7260   -0.3710 C   0  0  0  0  0  0  0  0  0  0  0  0
    0.6800   -2.7950   -0.1970 H   0  0  0  0  0  0  0  0  0  0  0  0
    0.4060   -1.4960   -1.3400 H   0  0  0  0  0  0  0  0  0  0  0  0
    6.2660   -0.1370    0.3930 O   0  0  0  0  0  0  0  0  0  0  0  0
   -7.3730   -2.7500   -0.9110 C   0  0  0  0  0  0  0  0  0  0  0  0
    4.1980    0.1850   -0.8620 C   0  0  0  0  0  0  0  0  0  0  0  0
    4.3590    0.9990   -1.5820 H   0  0  0  0  0  0  0  0  0  0  0  0
    4.6270   -0.7010   -1.3490 H   0  0  0  0  0  0  0  0  0  0  0  0
    2.3440   -1.4860   -0.4770 C   0  0  0  0  0  0  0  0  0  0  0  0
    2.7280   -2.0640   -1.3280 H   0  0  0  0  0  0  0  0  0  0  0  0
    2.8350   -1.8930    0.4120 H   0  0  0  0  0  0  0  0  0  0  0  0
   -3.8100    2.9370    2.2230 O   0  0  0  0  0  0  0  0  0  0  0  0
    7.1040    1.3990   -1.0970 O   0  0  0  0  0  0  0  0  0  0  0  0
   -2.7480    3.8790    0.3650 C   0  0  0  0  0  0  0  0  0  0  0  0
    8.4730   -0.4010   -0.3310 C   0  0  0  0  0  0  0  0  0  0  0  0
    4.9860    0.5350    0.4080 C   0  0  1  0  0  0  0  0  0  0  0  0
   -7.5680   -1.8290   -1.6990 O   0  0  0  0  0  0  0  0  0  0  0  0
   -4.9610   -0.7210   -0.2150 C   0  0  3  0  0  0  0  0  0  0  0  0
   -6.1860   -1.1310    0.6580 C   0  0  0  0  0  0  0  0  0  0  0  0
   -5.9380   -1.0130    1.7210 H   0  0  0  0  0  0  0  0  0  0  0  0
   -7.0280   -0.4500    0.4780 H   0  0  0  0  0  0  0  0  0  0  0  0
    4.2660    0.1170    1.6820 C   0  0  0  0  0  0  0  0  0  0  0  0
    4.2650   -0.9780    1.7560 H   0  0  0  0  0  0  0  0  0  0  0  0
    4.8470    0.4400    2.5560 H   0  0  0  0  0  0  0  0  0  0  0  0
   -6.6890   -2.5630    0.4300 C   0  0  0  0  0  0  0  0  0  0  0  0
   -7.4280   -2.7820    1.2090 H   0  0  0  0  0  0  0  0  0  0  0  0
   -5.8630   -3.2690    0.5160 H   0  0  0  0  0  0  0  0  0  0  0  0
   -2.1800   -0.9950   -1.5200 C   0  0  0  0  0  0  0  0  0  0  0  0
   -2.2270   -2.0870   -1.5450 H   0  0  0  0  0  0  0  0  0  0  0  0
   -1.2800   -0.6950   -2.0540 H   0  0  0  0  0  0  0  0  0  0  0  0
   -3.0050   -0.6230   -2.1350 H   0  0  0  0  0  0  0  0  0  0  0  0
    2.2910    2.3940    0.0780 C   0  0  0  0  0  0  0  0  0  0  0  0
    3.3380    2.7010    0.1180 H   0  0  0  0  0  0  0  0  0  0  0  0
    1.7480    3.0460    0.7720 H   0  0  0  0  0  0  0  0  0  0  0  0
    1.9420    2.6100   -0.9380 H   0  0  0  0  0  0  0  0  0  0  0  0
   -7.7800   -4.0110   -1.2140 O   0  0  0  0  0  0  0  0  0  0  0  0
   -1.5240    4.5540    0.4020 C   0  0  0  0  0  0  0  0  0  0  0  0
   -0.7510    4.2600    1.1080 H   0  0  0  0  0  0  0  0  0  0  0  0
   -3.7630    4.2920   -0.5010 C   0  0  0  0  0  0  0  0  0  0  0  0
   -4.7300    3.7990   -0.4990 H   0  0  0  0  0  0  0  0  0  0  0  0
    8.5980   -1.5230    0.4990 C   0  0  0  0  0  0  0  0  0  0  0  0
    7.7760   -1.8510    1.1300 H   0  0  0  0  0  0  0  0  0  0  0  0
    9.5560   -0.0100   -1.1300 C   0  0  0  0  0  0  0  0  0  0  0  0
    9.4770    0.8580   -1.7810 H   0  0  0  0  0  0  0  0  0  0  0  0
   -5.2020    0.7060   -0.7160 C   0  0  0  0  0  0  0  0  0  0  0  0
   -6.1690    0.7790   -1.2270 H   0  0  0  0  0  0  0  0  0  0  0  0
   -4.4520    1.0160   -1.4440 H   0  0  0  0  0  0  0  0  0  0  0  0
   -5.2110    1.4170    0.1140 H   0  0  0  0  0  0  0  0  0  0  0  0
   -7.6300   -5.1040   -0.2940 C   0  0  0  0  0  0  0  0  0  0  0  0
   -8.0970   -5.9840   -0.7460 H   0  0  0  0  0  0  0  0  0  0  0  0
   -8.1440   -4.8900    0.6460 H   0  0  0  0  0  0  0  0  0  0  0  0
   -6.5720   -5.3220   -0.1330 H   0  0  0  0  0  0  0  0  0  0  0  0
   -3.5290    5.3560   -1.3730 C   0  0  0  0  0  0  0  0  0  0  0  0
   -4.3090    5.6830   -2.0560 H   0  0  0  0  0  0  0  0  0  0  0  0
   -1.2950    5.6140   -0.4740 C   0  0  0  0  0  0  0  0  0  0  0  0
   -0.3410    6.1340   -0.4600 H   0  0  0  0  0  0  0  0  0  0  0  0
    9.7950   -2.2430    0.5260 C   0  0  0  0  0  0  0  0  0  0  0  0
    9.8900   -3.1130    1.1710 H   0  0  0  0  0  0  0  0  0  0  0  0
   10.7500   -0.7330   -1.0990 C   0  0  0  0  0  0  0  0  0  0  0  0
   11.5870   -0.4260   -1.7210 H   0  0  0  0  0  0  0  0  0  0  0  0
   -2.2950    6.0110   -1.3630 C   0  0  0  0  0  0  0  0  0  0  0  0
   -2.1170    6.8410   -2.0430 H   0  0  0  0  0  0  0  0  0  0  0  0
   10.8690   -1.8480   -0.2720 C   0  0  0  0  0  0  0  0  0  0  0  0
   11.7990   -2.4110   -0.2480 H   0  0  0  0  0  0  0  0  0  0  0  0
    0.2770    1.0640    1.6240 H   0  0  0  0  0  0  0  0  0  0  0  0
   -1.4910   -0.6020    1.9220 H   0  0  0  0  0  0  0  0  0  0  0  0
    0.6770   -1.2770    1.6820 H   0  0  0  0  0  0  0  0  0  0  0  0
   -2.4760    1.5920   -0.8990 H   0  0  0  0  0  0  0  0  0  0  0  0
   -3.7440   -0.2870    1.5070 H   0  0  0  0  0  0  0  0  0  0  0  0
    2.2090    0.2930   -1.6290 H   0  0  0  0  0  0  0  0  0  0  0  0
    5.1670    1.6160    0.4610 H   0  0  0  0  0  0  0  0  0  0  0  0
   -4.9230   -1.3730   -1.0960 H   0  0  0  0  0  0  0  0  0  0  0  0
  1  3  1  0  0  0  0
  1  6  1  0  0  0  0
  1 10  1  0  0  0  0
  1 51  1  0  0  0  0
  2  4  1  0  0  0  0
  2  5  1  0  0  0  0
  2  7  1  0  0  0  0
  2 88  1  0  0  0  0
  3  5  1  0  0  0  0
  3 15  1  0  0  0  0
  3 89  1  0  0  0  0
  4 14  1  0  0  0  0
  4 18  1  0  0  0  0
  4 55  1  0  0  0  0
  5 24  1  0  0  0  0
  5 90  1  0  0  0  0
  6  7  1  0  0  0  0
  6 13  1  0  0  0  0
  6 91  1  0  0  0  0
  7  8  1  0  0  0  0
  7  9  1  0  0  0  0
 10 21  1  0  0  0  0
 10 41  1  0  0  0  0
 10 92  1  0  0  0  0
 11 13  1  0  0  0  0
 11 35  2  0  0  0  0
 11 37  1  0  0  0  0
 12 27  1  0  0  0  0
 12 36  2  0  0  0  0
 12 38  1  0  0  0  0
 14 29  1  0  0  0  0
 14 32  1  0  0  0  0
 14 93  1  0  0  0  0
 15 16  1  0  0  0  0
 15 17  1  0  0  0  0
 15 21  1  0  0  0  0
 18 19  1  0  0  0  0
 18 20  1  0  0  0  0
 18 45  1  0  0  0  0
 21 22  1  0  0  0  0
 21 23  1  0  0  0  0
 24 25  1  0  0  0  0
 24 26  1  0  0  0  0
 24 32  1  0  0  0  0
 27 39  1  0  0  0  0
 28 40  2  0  0  0  0
 28 48  1  0  0  0  0
 28 59  1  0  0  0  0
 29 30  1  0  0  0  0
 29 31  1  0  0  0  0
 29 39  1  0  0  0  0
 32 33  1  0  0  0  0
 32 34  1  0  0  0  0
 37 60  2  0  0  0  0
 37 62  1  0  0  0  0
 38 64  2  0  0  0  0
 38 66  1  0  0  0  0
 39 45  1  0  0  0  0
 39 94  1  0  0  0  0
 41 42  1  0  0  0  0
 41 68  1  0  0  0  0
 41 95  1  0  0  0  0
 42 43  1  0  0  0  0
 42 44  1  0  0  0  0
 42 48  1  0  0  0  0
 45 46  1  0  0  0  0
 45 47  1  0  0  0  0
 48 49  1  0  0  0  0
 48 50  1  0  0  0  0
 51 52  1  0  0  0  0
 51 53  1  0  0  0  0
 51 54  1  0  0  0  0
 55 56  1  0  0  0  0
 55 57  1  0  0  0  0
 55 58  1  0  0  0  0
 59 72  1  0  0  0  0
 60 61  1  0  0  0  0
 60 78  1  0  0  0  0
 62 63  1  0  0  0  0
 62 76  2  0  0  0  0
 64 65  1  0  0  0  0
 64 80  1  0  0  0  0
 66 67  1  0  0  0  0
 66 82  2  0  0  0  0
 68 69  1  0  0  0  0
 68 70  1  0  0  0  0
 68 71  1  0  0  0  0
 72 73  1  0  0  0  0
 72 74  1  0  0  0  0
 72 75  1  0  0  0  0
 76 77  1  0  0  0  0
 76 84  1  0  0  0  0
 78 79  1  0  0  0  0
 78 84  2  0  0  0  0
 80 81  1  0  0  0  0
 80 86  2  0  0  0  0
 82 83  1  0  0  0  0
 82 86  1  0  0  0  0
 84 85  1  0  0  0  0
 86 87  1  0  0  0  0
M  END
>  <IDNUMBER>
AF-291/20009004

>  <NAME>
methyl 3,12-bis(benzoyloxy)cholan-24-oate

>  <ADD_INFO>
http://www.specs.net/enter.php?specsid=AF-291/20009004

>  <H_ACCEPTORS>
6

>  <H_DONORS>
0

>  <ROTATABLE_BONDS>
11

>  <LOGP>
9.8599997

>  <LOGS>
-12.1

>  <TPSA>
78.900002

>  <PRICE>
N04

$$$$
AG-205/03660043
  MOE2011           3D

 46 48  0  0  0  0  0  0  0  0999 V2000
    1.5440    1.0710    0.5700 C   0  0  0  0  0  0  0  0  0  0  0  0
    0.5660    1.9200    1.1470 C   0  0  0  0  0  0  0  0  0  0  0  0
    1.6520   -0.3250    0.7980 C   0  0  0  0  0  0  0  0  0  0  0  0
    0.9420   -0.7960    1.4690 H   0  0  0  0  0  0  0  0  0  0  0  0
    2.4710    1.6720   -0.3080 C   0  0  0  0  0  0  0  0  0  0  0  0
    2.6390   -1.1080    0.1810 C   0  0  0  0  0  0  0  0  0  0  0  0
    3.5710   -0.4780   -0.6520 C   0  0  0  0  0  0  0  0  0  0  0  0
    3.4680    0.8920   -0.9110 C   0  0  0  0  0  0  0  0  0  0  0  0
    4.1880    1.3480   -1.5880 H   0  0  0  0  0  0  0  0  0  0  0  0
    0.4930    3.2540    0.8870 N   0  0  0  0  0  0  0  0  0  0  0  0
   -3.2950    0.3890   -0.3450 C   0  0  0  0  0  0  0  0  0  0  0  0
   -0.5070    1.4080    2.0880 C   0  0  0  0  0  0  0  0  0  0  0  0
   -0.0270    0.8180    2.8790 H   0  0  0  0  0  0  0  0  0  0  0  0
   -0.9750    2.2580    2.6030 H   0  0  0  0  0  0  0  0  0  0  0  0
   -3.6820   -0.8430    0.2060 C   0  0  0  0  0  0  0  0  0  0  0  0
   -2.2630    1.1090    0.2730 C   0  0  0  0  0  0  0  0  0  0  0  0
   -1.9510    2.0760   -0.1130 H   0  0  0  0  0  0  0  0  0  0  0  0
   -1.6130    0.6170    1.4200 C   0  0  0  0  0  0  0  0  0  0  0  0
   -3.0750   -1.3140    1.3740 C   0  0  0  0  0  0  0  0  0  0  0  0
   -3.4050   -2.2530    1.8120 H   0  0  0  0  0  0  0  0  0  0  0  0
   -2.0450   -0.5930    1.9760 C   0  0  0  0  0  0  0  0  0  0  0  0
   -1.5880   -0.9820    2.8830 H   0  0  0  0  0  0  0  0  0  0  0  0
    1.4000    3.7790    0.0440 C   0  0  0  0  0  0  0  0  0  0  0  0
    1.3060    4.8470   -0.1330 H   0  0  0  0  0  0  0  0  0  0  0  0
    2.7460   -2.4650    0.3320 O   0  0  0  0  0  0  0  0  0  0  0  0
    4.5880   -1.1080   -1.3250 O   0  0  0  0  0  0  0  0  0  0  0  0
   -3.9890    0.8320   -1.4420 O   0  0  0  0  0  0  0  0  0  0  0  0
   -4.6870   -1.6430   -0.2790 O   0  0  0  0  0  0  0  0  0  0  0  0
    2.3930    3.0420   -0.5700 C   0  0  0  0  0  0  0  0  0  0  0  0
    3.0910    3.5340   -1.2400 H   0  0  0  0  0  0  0  0  0  0  0  0
    5.3700   -1.9880   -0.5210 C   0  0  0  0  0  0  0  0  0  0  0  0
    6.3860   -1.9920   -0.9260 H   0  0  0  0  0  0  0  0  0  0  0  0
    4.9840   -3.0090   -0.5920 H   0  0  0  0  0  0  0  0  0  0  0  0
    5.4310   -1.6640    0.5250 H   0  0  0  0  0  0  0  0  0  0  0  0
    1.6680   -3.1490    0.9580 C   0  0  0  0  0  0  0  0  0  0  0  0
    1.8650   -4.2230    0.8800 H   0  0  0  0  0  0  0  0  0  0  0  0
    0.7180   -2.9470    0.4510 H   0  0  0  0  0  0  0  0  0  0  0  0
    1.6110   -2.8980    2.0220 H   0  0  0  0  0  0  0  0  0  0  0  0
   -3.4930    1.9860   -2.1090 C   0  0  0  0  0  0  0  0  0  0  0  0
   -4.0970    2.1340   -3.0100 H   0  0  0  0  0  0  0  0  0  0  0  0
   -2.4540    1.8480   -2.4260 H   0  0  0  0  0  0  0  0  0  0  0  0
   -3.6050    2.8780   -1.4840 H   0  0  0  0  0  0  0  0  0  0  0  0
   -4.5880   -1.9110   -1.6760 C   0  0  0  0  0  0  0  0  0  0  0  0
   -5.0080   -2.9060   -1.8520 H   0  0  0  0  0  0  0  0  0  0  0  0
   -3.5530   -1.9200   -2.0350 H   0  0  0  0  0  0  0  0  0  0  0  0
   -5.1910   -1.1950   -2.2420 H   0  0  0  0  0  0  0  0  0  0  0  0
  1  2  2  0  0  0  0
  1  3  1  0  0  0  0
  1  5  1  0  0  0  0
  2 10  1  0  0  0  0
  2 12  1  0  0  0  0
  3  4  1  0  0  0  0
  3  6  2  0  0  0  0
  5  8  1  0  0  0  0
  5 29  2  0  0  0  0
  6  7  1  0  0  0  0
  6 25  1  0  0  0  0
  7  8  2  0  0  0  0
  7 26  1  0  0  0  0
  8  9  1  0  0  0  0
 10 23  2  0  0  0  0
 11 15  2  0  0  0  0
 11 16  1  0  0  0  0
 11 27  1  0  0  0  0
 12 13  1  0  0  0  0
 12 14  1  0  0  0  0
 12 18  1  0  0  0  0
 15 19  1  0  0  0  0
 15 28  1  0  0  0  0
 16 17  1  0  0  0  0
 16 18  2  0  0  0  0
 18 21  1  0  0  0  0
 19 20  1  0  0  0  0
 19 21  2  0  0  0  0
 21 22  1  0  0  0  0
 23 24  1  0  0  0  0
 23 29  1  0  0  0  0
 25 35  1  0  0  0  0
 26 31  1  0  0  0  0
 27 39  1  0  0  0  0
 28 43  1  0  0  0  0
 29 30  1  0  0  0  0
 31 32  1  0  0  0  0
 31 33  1  0  0  0  0
 31 34  1  0  0  0  0
 35 36  1  0  0  0  0
 35 37  1  0  0  0  0
 35 38  1  0  0  0  0
 39 40  1  0  0  0  0
 39 41  1  0  0  0  0
 39 42  1  0  0  0  0
 43 44  1  0  0  0  0
 43 45  1  0  0  0  0
 43 46  1  0  0  0  0
M  END
>  <IDNUMBER>
AG-205/03660043

>  <NAME>
Papaverine

>  <ADD_INFO>
http://www.specs.net/enter.php?specsid=AG-205/03660043

>  <H_ACCEPTORS>
1

>  <H_DONORS>
0

>  <ROTATABLE_BONDS>
6

>  <LOGP>
2.95

>  <LOGS>
-4.1900001

>  <TPSA>
49.810001

>  <PRICE>
N07

>  <SALTDATA>
HCl

$$$$
AG-205/06483015
  MOE2011           3D

 36 39  0  0  1  0  0  0  0  0999 V2000
    0.2610    0.1350   -0.8000 C   0  0  0  0  0  0  0  0  0  0  0  0
    1.1420   -0.6770   -0.2000 C   0  0  0  0  0  0  0  0  0  0  0  0
   -1.4090   -1.7410   -0.6160 C   0  0  0  0  0  0  0  0  0  0  0  0
    0.6840    1.4380   -1.3570 C   0  0  0  0  0  0  0  0  0  0  0  0
   -1.1830   -0.2770   -0.9720 C   0  0  3  0  0  0  0  0  0  0  0  0
   -0.4420   -2.4810   -0.0300 C   0  0  0  0  0  0  0  0  0  0  0  0
    0.8060   -1.9360    0.2640 O   0  0  0  0  0  0  0  0  0  0  0  0
    2.5280   -0.2640    0.0020 C   0  0  0  0  0  0  0  0  0  0  0  0
    1.9950    1.8300   -1.1200 O   0  0  0  0  0  0  0  0  0  0  0  0
    2.9130    0.9920   -0.4590 C   0  0  0  0  0  0  0  0  0  0  0  0
   -2.1410    0.6360   -0.2110 C   0  0  0  0  0  0  0  0  0  0  0  0
   -2.6700   -2.3250   -0.9460 C   0  0  0  0  0  0  0  0  0  0  0  0
   -3.6900   -2.8060   -1.2190 N   0  0  0  0  0  0  0  0  0  0  0  0
   -0.0800    2.1390   -2.0110 O   0  0  0  0  0  0  0  0  0  0  0  0
   -2.0950    0.7620    1.1840 C   0  0  0  0  0  0  0  0  0  0  0  0
   -0.5520   -3.7920    0.3290 N   0  0  0  0  0  0  0  0  0  0  0  0
   -1.4020   -4.3220    0.1820 H   0  0  0  0  0  0  0  0  0  0  0  0
    0.2500   -4.2390    0.7570 H   0  0  0  0  0  0  0  0  0  0  0  0
   -1.1900    0.0710    1.8920 F   0  0  0  0  0  0  0  0  0  0  0  0
    3.4890   -1.0560    0.6410 C   0  0  0  0  0  0  0  0  0  0  0  0
    3.2350   -2.0440    1.0200 H   0  0  0  0  0  0  0  0  0  0  0  0
   -3.1070    1.3820   -0.9080 C   0  0  0  0  0  0  0  0  0  0  0  0
   -3.1720    1.3240   -1.9930 H   0  0  0  0  0  0  0  0  0  0  0  0
    4.2120    1.4740   -0.3020 C   0  0  0  0  0  0  0  0  0  0  0  0
    4.4850    2.4580   -0.6730 H   0  0  0  0  0  0  0  0  0  0  0  0
   -2.9730    1.5970    1.8710 C   0  0  0  0  0  0  0  0  0  0  0  0
   -2.9100    1.6730    2.9520 H   0  0  0  0  0  0  0  0  0  0  0  0
    4.7980   -0.5880    0.8060 C   0  0  0  0  0  0  0  0  0  0  0  0
    5.5370   -1.2110    1.3040 H   0  0  0  0  0  0  0  0  0  0  0  0
   -3.9900    2.2210   -0.2240 C   0  0  0  0  0  0  0  0  0  0  0  0
   -4.7300    2.7960   -0.7770 H   0  0  0  0  0  0  0  0  0  0  0  0
    5.1580    0.6750    0.3350 C   0  0  0  0  0  0  0  0  0  0  0  0
    6.1760    1.0350    0.4660 H   0  0  0  0  0  0  0  0  0  0  0  0
   -3.9240    2.3290    1.1650 C   0  0  0  0  0  0  0  0  0  0  0  0
   -4.6110    2.9850    1.6930 H   0  0  0  0  0  0  0  0  0  0  0  0
   -1.4010   -0.1920   -2.0480 H   0  0  0  0  0  0  0  0  0  0  0  0
  1  2  2  0  0  0  0
  1  4  1  0  0  0  0
  1  5  1  0  0  0  0
  2  7  1  0  0  0  0
  2  8  1  0  0  0  0
  3  5  1  0  0  0  0
  3  6  2  0  0  0  0
  3 12  1  0  0  0  0
  4  9  1  0  0  0  0
  4 14  2  0  0  0  0
  5 11  1  0  0  0  0
  5 36  1  0  0  0  0
  6  7  1  0  0  0  0
  6 16  1  0  0  0  0
  8 10  2  0  0  0  0
  8 20  1  0  0  0  0
  9 10  1  0  0  0  0
 10 24  1  0  0  0  0
 11 15  2  0  0  0  0
 11 22  1  0  0  0  0
 12 13  3  0  0  0  0
 15 19  1  0  0  0  0
 15 26  1  0  0  0  0
 16 17  1  0  0  0  0
 16 18  1  0  0  0  0
 20 21  1  0  0  0  0
 20 28  2  0  0  0  0
 22 23  1  0  0  0  0
 22 30  2  0  0  0  0
 24 25  1  0  0  0  0
 24 32  2  0  0  0  0
 26 27  1  0  0  0  0
 26 34  2  0  0  0  0
 28 29  1  0  0  0  0
 28 32  1  0  0  0  0
 30 31  1  0  0  0  0
 30 34  1  0  0  0  0
 32 33  1  0  0  0  0
 34 35  1  0  0  0  0
M  END
>  <IDNUMBER>
AG-205/06483015

>  <NAME>
2-amino-4-(2-fluorophenyl)-5-oxo-4H,5H-pyrano[3,2-c]chromene-3-carbonitrile

>  <ADD_INFO>
http://www.specs.net/enter.php?specsid=AG-205/06483015

>  <H_ACCEPTORS>
4

>  <H_DONORS>
1

>  <ROTATABLE_BONDS>
1

>  <LOGP>
1.09

>  <LOGS>
-1.8200001

>  <TPSA>
85.339996

>  <PRICE>
N05

$$$$
AG-205/06483018
  MOE2011           3D

 37 40  0  0  1  0  0  0  0  0999 V2000
   -0.4200    0.0060    0.9030 C   0  0  0  0  0  0  0  0  0  0  0  0
   -1.3410    0.6390    0.1640 C   0  0  0  0  0  0  0  0  0  0  0  0
    1.0520    2.0190    0.5810 C   0  0  0  0  0  0  0  0  0  0  0  0
   -0.7420   -1.2540    1.6080 C   0  0  0  0  0  0  0  0  0  0  0  0
    0.9650    0.5820    1.0770 C   0  0  3  0  0  0  0  0  0  0  0  0
    0.0550    2.5750   -0.1420 C   0  0  0  0  0  0  0  0  0  0  0  0
   -1.1000    1.8570   -0.4470 O   0  0  0  0  0  0  0  0  0  0  0  0
   -2.6640    0.0590   -0.0450 C   0  0  0  0  0  0  0  0  0  0  0  0
   -1.9920   -1.8090    1.3650 O   0  0  0  0  0  0  0  0  0  0  0  0
   -2.9480   -1.1640    0.5580 C   0  0  0  0  0  0  0  0  0  0  0  0
    2.2150    2.7750    0.9180 C   0  0  0  0  0  0  0  0  0  0  0  0
    3.1540    3.3990    1.1940 N   0  0  0  0  0  0  0  0  0  0  0  0
    2.0280   -0.2900    0.4050 C   0  0  0  0  0  0  0  0  0  0  0  0
    0.0490   -1.7800    2.3830 O   0  0  0  0  0  0  0  0  0  0  0  0
    0.0480    3.8420   -0.6430 N   0  0  0  0  0  0  0  0  0  0  0  0
    0.8220    4.4820   -0.5030 H   0  0  0  0  0  0  0  0  0  0  0  0
   -0.7620    4.1440   -1.1700 H   0  0  0  0  0  0  0  0  0  0  0  0
    3.0290   -0.8950    1.1830 C   0  0  0  0  0  0  0  0  0  0  0  0
    3.0480   -0.7620    2.2630 H   0  0  0  0  0  0  0  0  0  0  0  0
    2.0320   -0.5030   -0.9860 C   0  0  0  0  0  0  0  0  0  0  0  0
    1.2710   -0.0510   -1.6190 H   0  0  0  0  0  0  0  0  0  0  0  0
    3.9950   -1.8840   -0.7910 C   0  0  0  0  0  0  0  0  0  0  0  0
    4.0100   -1.6890    0.5850 C   0  0  0  0  0  0  0  0  0  0  0  0
    4.7800   -2.1560    1.1920 H   0  0  0  0  0  0  0  0  0  0  0  0
    3.0130   -1.2980   -1.5830 C   0  0  0  0  0  0  0  0  0  0  0  0
    2.9950   -1.4450   -2.6590 H   0  0  0  0  0  0  0  0  0  0  0  0
   -3.6590    0.6570   -0.8270 C   0  0  0  0  0  0  0  0  0  0  0  0
   -3.4830    1.6110   -1.3190 H   0  0  0  0  0  0  0  0  0  0  0  0
    4.9730   -2.6660   -1.3320 O   0  0  0  0  0  0  0  0  0  0  0  0
    4.8240   -2.7410   -2.2880 H   0  0  0  0  0  0  0  0  0  0  0  0
   -4.1800   -1.7990    0.4040 C   0  0  0  0  0  0  0  0  0  0  0  0
   -4.3750   -2.7520    0.8870 H   0  0  0  0  0  0  0  0  0  0  0  0
   -4.9010    0.0340   -0.9910 C   0  0  0  0  0  0  0  0  0  0  0  0
   -5.6680    0.5060   -1.6000 H   0  0  0  0  0  0  0  0  0  0  0  0
   -5.1600   -1.1920   -0.3760 C   0  0  0  0  0  0  0  0  0  0  0  0
   -6.1270   -1.6730   -0.5070 H   0  0  0  0  0  0  0  0  0  0  0  0
    1.1620    0.6170    2.1590 H   0  0  0  0  0  0  0  0  0  0  0  0
  1  2  2  0  0  0  0
  1  4  1  0  0  0  0
  1  5  1  0  0  0  0
  2  7  1  0  0  0  0
  2  8  1  0  0  0  0
  3  5  1  0  0  0  0
  3  6  2  0  0  0  0
  3 11  1  0  0  0  0
  4  9  1  0  0  0  0
  4 14  2  0  0  0  0
  5 13  1  0  0  0  0
  5 37  1  0  0  0  0
  6  7  1  0  0  0  0
  6 15  1  0  0  0  0
  8 10  2  0  0  0  0
  8 27  1  0  0  0  0
  9 10  1  0  0  0  0
 10 31  1  0  0  0  0
 11 12  3  0  0  0  0
 13 18  2  0  0  0  0
 13 20  1  0  0  0  0
 15 16  1  0  0  0  0
 15 17  1  0  0  0  0
 18 19  1  0  0  0  0
 18 23  1  0  0  0  0
 20 21  1  0  0  0  0
 20 25  2  0  0  0  0
 22 23  2  0  0  0  0
 22 25  1  0  0  0  0
 22 29  1  0  0  0  0
 23 24  1  0  0  0  0
 25 26  1  0  0  0  0
 27 28  1  0  0  0  0
 27 33  2  0  0  0  0
 29 30  1  0  0  0  0
 31 32  1  0  0  0  0
 31 35  2  0  0  0  0
 33 34  1  0  0  0  0
 33 35  1  0  0  0  0
 35 36  1  0  0  0  0
M  END
>  <IDNUMBER>
AG-205/06483018

>  <NAME>
2-amino-4-(4-hydroxyphenyl)-5-oxo-4H,5H-pyrano[3,2-c]chromene-3-carbonitrile

>  <ADD_INFO>
http://www.specs.net/enter.php?specsid=AG-205/06483018

>  <H_ACCEPTORS>
4

>  <H_DONORS>
2

>  <ROTATABLE_BONDS>
1

>  <LOGP>
0.41

>  <LOGS>
-0.64999998

>  <TPSA>
105.57

>  <PRICE>
N05

$$$$
AG-205/06484030
  MOE2011           3D

 44 47  0  0  1  0  0  0  0  0999 V2000
   -1.2460   -0.5620   -0.8490 C   0  0  0  0  0  0  0  0  0  0  0  0
   -1.9090    0.3180   -0.0880 C   0  0  0  0  0  0  0  0  0  0  0  0
    0.7990    0.8590   -0.5060 C   0  0  0  0  0  0  0  0  0  0  0  0
    0.0390    1.6920    0.2380 C   0  0  0  0  0  0  0  0  0  0  0  0
   -1.9600   -1.6370   -1.5710 C   0  0  0  0  0  0  0  0  0  0  0  0
    0.2530   -0.4650   -1.0200 C   0  0  3  0  0  0  0  0  0  0  0  0
   -1.2840    1.3780    0.5440 O   0  0  0  0  0  0  0  0  0  0  0  0
   -3.3470    0.1900    0.1280 C   0  0  0  0  0  0  0  0  0  0  0  0
   -3.3210   -1.7620   -1.3280 O   0  0  0  0  0  0  0  0  0  0  0  0
   -4.0130   -0.8630   -0.4940 C   0  0  0  0  0  0  0  0  0  0  0  0
    2.1940    1.1650   -0.9340 C   0  0  0  0  0  0  0  0  0  0  0  0
    0.9610   -1.6450   -0.3470 C   0  0  0  0  0  0  0  0  0  0  0  0
   -1.3850   -2.3810   -2.3590 O   0  0  0  0  0  0  0  0  0  0  0  0
    0.4380    2.8850    0.7570 N   0  0  0  0  0  0  0  0  0  0  0  0
    1.4020    3.1830    0.6300 H   0  0  0  0  0  0  0  0  0  0  0  0
   -0.2240    3.4520    1.2680 H   0  0  0  0  0  0  0  0  0  0  0  0
    2.7340    0.6070   -1.8800 O   0  0  0  0  0  0  0  0  0  0  0  0
    0.9060   -1.8390    1.0450 C   0  0  0  0  0  0  0  0  0  0  0  0
    0.3580   -1.1470    1.6810 H   0  0  0  0  0  0  0  0  0  0  0  0
    1.6810   -2.5660   -1.1270 C   0  0  0  0  0  0  0  0  0  0  0  0
    1.7370   -2.4440   -2.2070 H   0  0  0  0  0  0  0  0  0  0  0  0
    2.7810    2.1010   -0.1420 O   0  0  0  0  0  0  0  0  0  0  0  0
    2.2620   -3.8250    0.8460 C   0  0  0  0  0  0  0  0  0  0  0  0
    1.5550   -2.9240    1.6390 C   0  0  0  0  0  0  0  0  0  0  0  0
    1.5010   -3.0550    2.7170 H   0  0  0  0  0  0  0  0  0  0  0  0
    2.3290   -3.6510   -0.5340 C   0  0  0  0  0  0  0  0  0  0  0  0
    2.8770   -4.3520   -1.1580 H   0  0  0  0  0  0  0  0  0  0  0  0
    3.1390   -5.2940    1.6510 Br  0  0  0  0  0  0  0  0  0  0  0  0
   -4.0910    1.0560    0.9380 C   0  0  0  0  0  0  0  0  0  0  0  0
   -3.6140    1.8910    1.4450 H   0  0  0  0  0  0  0  0  0  0  0  0
   -5.3820   -1.0750   -0.3310 C   0  0  0  0  0  0  0  0  0  0  0  0
   -5.8750   -1.9040   -0.8300 H   0  0  0  0  0  0  0  0  0  0  0  0
    4.1410    2.4030   -0.4830 C   0  0  0  0  0  0  0  0  0  0  0  0
    4.7510    1.4960   -0.4080 H   0  0  0  0  0  0  0  0  0  0  0  0
    4.1860    2.7960   -1.5050 H   0  0  0  0  0  0  0  0  0  0  0  0
   -5.4660    0.8570    1.1120 C   0  0  0  0  0  0  0  0  0  0  0  0
   -6.0340    1.5350    1.7440 H   0  0  0  0  0  0  0  0  0  0  0  0
   -6.1100   -0.2080    0.4790 C   0  0  0  0  0  0  0  0  0  0  0  0
   -7.1770   -0.3580    0.6180 H   0  0  0  0  0  0  0  0  0  0  0  0
    4.6510    3.4470    0.4910 C   0  0  0  0  0  0  0  0  0  0  0  0
    4.5880    3.0770    1.5200 H   0  0  0  0  0  0  0  0  0  0  0  0
    4.0390    4.3530    0.4410 H   0  0  0  0  0  0  0  0  0  0  0  0
    5.6900    3.7100    0.2730 H   0  0  0  0  0  0  0  0  0  0  0  0
    0.4470   -0.4940   -2.1030 H   0  0  0  0  0  0  0  0  0  0  0  0
  1  2  2  0  0  0  0
  1  5  1  0  0  0  0
  1  6  1  0  0  0  0
  2  7  1  0  0  0  0
  2  8  1  0  0  0  0
  3  4  2  0  0  0  0
  3  6  1  0  0  0  0
  3 11  1  0  0  0  0
  4  7  1  0  0  0  0
  4 14  1  0  0  0  0
  5  9  1  0  0  0  0
  5 13  2  0  0  0  0
  6 12  1  0  0  0  0
  6 44  1  0  0  0  0
  8 10  2  0  0  0  0
  8 29  1  0  0  0  0
  9 10  1  0  0  0  0
 10 31  1  0  0  0  0
 11 17  2  0  0  0  0
 11 22  1  0  0  0  0
 12 18  2  0  0  0  0
 12 20  1  0  0  0  0
 14 15  1  0  0  0  0
 14 16  1  0  0  0  0
 18 19  1  0  0  0  0
 18 24  1  0  0  0  0
 20 21  1  0  0  0  0
 20 26  2  0  0  0  0
 22 33  1  0  0  0  0
 23 24  2  0  0  0  0
 23 26  1  0  0  0  0
 23 28  1  0  0  0  0
 24 25  1  0  0  0  0
 26 27  1  0  0  0  0
 29 30  1  0  0  0  0
 29 36  2  0  0  0  0
 31 32  1  0  0  0  0
 31 38  2  0  0  0  0
 33 34  1  0  0  0  0
 33 35  1  0  0  0  0
 33 40  1  0  0  0  0
 36 37  1  0  0  0  0
 36 38  1  0  0  0  0
 38 39  1  0  0  0  0
 40 41  1  0  0  0  0
 40 42  1  0  0  0  0
 40 43  1  0  0  0  0
M  END
>  <IDNUMBER>
AG-205/06484030

>  <NAME>
ethyl 2-amino-4-(4-bromophenyl)-5-oxo-4H,5H-pyrano[3,2-c]chromene-3-carboxylate

>  <ADD_INFO>
http://www.specs.net/enter.php?specsid=AG-205/06484030

>  <H_ACCEPTORS>
5

>  <H_DONORS>
1

>  <ROTATABLE_BONDS>
4

>  <LOGP>
2.79

>  <LOGS>
-3.8

>  <TPSA>
87.849998

>  <PRICE>
N05

$$$$
AG-227/21016014
  MOE2011           3D

162168  0  0  1  0  0  0  0  0999 V2000
    3.5610   -2.8330    0.2490 C   0  0  0  0  0  0  0  0  0  0  0  0
    1.5130   -3.4020    1.8950 C   0  0  1  0  0  0  0  0  0  0  0  0
    3.0910   -3.6290    1.4550 C   0  0  3  0  0  0  0  0  0  0  0  0
   -0.4010   -1.5240    2.0250 C   0  0  2  0  0  0  0  0  0  0  0  0
   -6.8360   -0.2130    0.4190 C   0  0  3  0  0  0  0  0  0  0  0  0
   -1.3930    4.3020    0.4230 C   0  0  3  0  0  0  0  0  0  0  0  0
   -4.8860    1.6140   -0.2350 C   0  0  3  0  0  0  0  0  0  0  0  0
    1.0960   -1.9050    1.6060 C   0  0  3  0  0  0  0  0  0  0  0  0
   -3.4580    3.5980   -0.5860 C   0  0  3  0  0  0  0  0  0  0  0  0
   -4.6400    0.1100   -0.5610 C   0  0  3  0  0  0  0  0  0  0  0  0
   -2.2590    3.2160    0.0900 O   0  0  0  0  0  0  0  0  0  0  0  0
   -5.6680   -0.7920   -0.1370 O   0  0  0  0  0  0  0  0  0  0  0  0
    2.7700   -1.9470   -0.3750 C   0  0  0  0  0  0  0  0  0  0  0  0
    3.1100   -1.3510   -1.2170 H   0  0  0  0  0  0  0  0  0  0  0  0
   -4.3140    4.5940    0.2510 C   0  0  3  0  0  0  0  0  0  0  0  0
    1.4030   -1.6640    0.1020 C   0  0  0  0  0  0  0  0  0  0  0  0
   -7.3580    0.8750   -0.5040 C   0  0  3  0  0  0  0  0  0  0  0  0
   -2.1540    5.3390    1.2860 C   0  0  3  0  0  0  0  0  0  0  0  0
   -6.3580    2.0310   -0.4520 C   0  0  3  0  0  0  0  0  0  0  0  0
   -1.4120   -2.4790    1.2990 C   0  0  3  0  0  0  0  0  0  0  0  0
    5.0610   -2.8340   -0.1030 C   0  0  3  0  0  0  0  0  0  0  0  0
   -3.4600    5.8140    0.6130 C   0  0  3  0  0  0  0  0  0  0  0  0
   -7.8990   -1.2570    0.7580 C   0  0  0  0  0  0  0  0  0  0  0  0
   -0.6670    4.9840   -0.7600 C   0  0  0  0  0  0  0  0  0  0  0  0
   -4.1070    2.4350   -1.1140 O   0  0  0  0  0  0  0  0  0  0  0  0
   -2.9470   -2.1790    1.5630 C   0  0  0  0  0  0  0  0  0  0  0  0
    6.7350   -1.5480   -2.4750 C   0  0  0  0  0  0  0  0  0  0  0  0
    6.9100   -2.9600   -1.8510 C   0  0  2  0  0  0  0  0  0  0  0  0
    5.4980   -3.4940   -1.4230 C   0  0  0  0  0  0  0  0  0  0  0  0
    4.7550   -3.2960   -2.2060 H   0  0  0  0  0  0  0  0  0  0  0  0
    5.5170   -4.5840   -1.3180 H   0  0  0  0  0  0  0  0  0  0  0  0
   -8.3090   -2.1710   -0.1580 N   0  0  0  0  0  0  0  0  0  0  0  0
   -8.9760   -2.8530    0.1920 H   0  0  0  0  0  0  0  0  0  0  0  0
    0.3640    5.8130   -0.3430 N   0  0  0  0  0  0  0  0  0  0  0  0
    0.8010    5.6670    0.5620 H   0  0  0  0  0  0  0  0  0  0  0  0
    6.0540   -3.1810    1.0560 C   0  0  3  0  0  0  0  0  0  0  0  0
   -3.3460   -0.3490   -0.0940 O   0  0  0  0  0  0  0  0  0  0  0  0
   -3.2740   -0.6560    1.3100 C   0  0  3  0  0  0  0  0  0  0  0  0
    7.8250   -0.7070   -2.4390 N   0  0  0  0  0  0  0  0  0  0  0  0
    8.6390   -0.9210   -1.8840 H   0  0  0  0  0  0  0  0  0  0  0  0
    0.4730   -4.2700    1.1120 C   0  0  0  0  0  0  0  0  0  0  0  0
    0.6150   -4.1590    0.0300 H   0  0  0  0  0  0  0  0  0  0  0  0
    0.6250   -5.3340    1.3340 H   0  0  0  0  0  0  0  0  0  0  0  0
   -0.7800   -0.0620    1.6400 C   0  0  0  0  0  0  0  0  0  0  0  0
   -0.1260    0.6420    2.1710 H   0  0  0  0  0  0  0  0  0  0  0  0
   -0.6240    0.1330    0.5780 H   0  0  0  0  0  0  0  0  0  0  0  0
    4.0410   -3.1840    2.6470 C   0  0  0  0  0  0  0  0  0  0  0  0
    3.5510   -2.4000    3.2350 H   0  0  0  0  0  0  0  0  0  0  0  0
    4.1770   -4.0320    3.3310 H   0  0  0  0  0  0  0  0  0  0  0  0
   -1.0050   -3.9640    1.4410 C   0  0  0  0  0  0  0  0  0  0  0  0
   -1.2470   -4.3330    2.4410 H   0  0  0  0  0  0  0  0  0  0  0  0
   -1.5990   -4.5770    0.7530 H   0  0  0  0  0  0  0  0  0  0  0  0
   -7.5200   -3.8990   -1.7700 C   0  0  0  0  0  0  0  0  0  0  0  0
    7.8620    0.3330   -4.7590 C   0  0  0  0  0  0  0  0  0  0  0  0
   -0.3240    8.1150   -1.0630 C   0  0  0  0  0  0  0  0  0  0  0  0
    0.7600    6.9860   -1.1340 C   0  0  3  0  0  0  0  0  0  0  0  0
   -7.9270   -2.4090   -1.5700 C   0  0  3  0  0  0  0  0  0  0  0  0
    7.8880    0.5560   -3.2050 C   0  0  3  0  0  0  0  0  0  0  0  0
  -10.0290   -1.5920   -4.7500 C   0  0  0  0  0  0  0  0  0  0  0  0
    7.7900    1.5380   -0.2140 C   0  0  0  0  0  0  0  0  0  0  0  0
    3.6480    8.3070    1.1080 C   0  0  0  0  0  0  0  0  0  0  0  0
    0.5940   -1.2570   -0.7270 O   0  0  0  0  0  0  0  0  0  0  0  0
   -8.4240   -1.2560    1.8770 O   0  0  0  0  0  0  0  0  0  0  0  0
   -1.0170    4.8750   -1.9320 O   0  0  0  0  0  0  0  0  0  0  0  0
    5.4380   -2.5940    2.3270 C   0  0  0  0  0  0  0  0  0  0  0  0
    6.0990   -2.7410    3.1900 H   0  0  0  0  0  0  0  0  0  0  0  0
    5.3370   -1.5050    2.2150 H   0  0  0  0  0  0  0  0  0  0  0  0
   -2.2460    0.2930    1.9440 C   0  0  0  0  0  0  0  0  0  0  0  0
   -2.4200    1.3090    1.5850 H   0  0  0  0  0  0  0  0  0  0  0  0
   -2.4200    0.3440    3.0220 H   0  0  0  0  0  0  0  0  0  0  0  0
    5.6950   -1.2540   -3.0700 O   0  0  0  0  0  0  0  0  0  0  0  0
    7.9200   -3.0450   -0.6740 C   0  0  0  0  0  0  0  0  0  0  0  0
    8.2040   -4.0960   -0.5290 H   0  0  0  0  0  0  0  0  0  0  0  0
    8.8680   -2.5500   -0.9080 H   0  0  0  0  0  0  0  0  0  0  0  0
    7.3920   -2.5010    0.6640 C   0  0  0  0  0  0  0  0  0  0  0  0
    7.2640   -1.4190    0.5880 H   0  0  0  0  0  0  0  0  0  0  0  0
    8.1480   -2.6550    1.4430 H   0  0  0  0  0  0  0  0  0  0  0  0
    7.2280    1.1830   -5.4480 O   0  0  0  0  0  0  0  0  0  0  0  0
   -0.1450    9.1090   -1.8190 O   0  0  0  0  0  0  0  0  0  0  0  0
   -8.2790   -4.7330   -1.1890 O   0  0  0  0  0  0  0  0  0  0  0  0
    6.7860    1.0070    0.3370 O   0  0  0  0  0  0  0  0  0  0  0  0
  -10.7530   -2.3970   -5.4010 O   0  0  0  0  0  0  0  0  0  0  0  0
    4.1870    7.2560    1.5570 O   0  0  0  0  0  0  0  0  0  0  0  0
    2.1450    7.5000   -0.7190 C   0  0  0  0  0  0  0  0  0  0  0  0
    2.8590    6.6670   -0.7710 H   0  0  0  0  0  0  0  0  0  0  0  0
    2.4910    8.2410   -1.4520 H   0  0  0  0  0  0  0  0  0  0  0  0
    6.9270    1.6200   -2.6390 C   0  0  0  0  0  0  0  0  0  0  0  0
    6.6910    2.3660   -3.4060 H   0  0  0  0  0  0  0  0  0  0  0  0
    5.9710    1.1700   -2.3500 H   0  0  0  0  0  0  0  0  0  0  0  0
   -9.1390   -2.0800   -2.4590 C   0  0  0  0  0  0  0  0  0  0  0  0
   -9.9890   -2.7220   -2.1900 H   0  0  0  0  0  0  0  0  0  0  0  0
   -9.4650   -1.0560   -2.2330 H   0  0  0  0  0  0  0  0  0  0  0  0
   -4.7790    4.0440    1.4900 O   0  0  0  0  0  0  0  0  0  0  0  0
   -5.6510    3.6160    1.2780 H   0  0  0  0  0  0  0  0  0  0  0  0
   -1.3450    6.4360    1.7170 O   0  0  0  0  0  0  0  0  0  0  0  0
   -1.2670    7.0820    0.9490 H   0  0  0  0  0  0  0  0  0  0  0  0
   -8.6210    1.4160   -0.0880 O   0  0  0  0  0  0  0  0  0  0  0  0
   -9.3120    0.7850   -0.3710 H   0  0  0  0  0  0  0  0  0  0  0  0
   -6.7600    2.8880    0.6510 O   0  0  0  0  0  0  0  0  0  0  0  0
   -7.7410    2.7470    0.6730 H   0  0  0  0  0  0  0  0  0  0  0  0
   -3.2540    6.5630   -0.5820 O   0  0  0  0  0  0  0  0  0  0  0  0
   -2.4940    7.2090   -0.4420 H   0  0  0  0  0  0  0  0  0  0  0  0
    1.4040   -3.8650    3.3820 C   0  0  0  0  0  0  0  0  0  0  0  0
    0.3950   -4.1320    3.6930 H   0  0  0  0  0  0  0  0  0  0  0  0
    1.7750   -3.1150    4.0840 H   0  0  0  0  0  0  0  0  0  0  0  0
    1.9760   -4.7830    3.5550 H   0  0  0  0  0  0  0  0  0  0  0  0
   -0.4770   -1.5730    3.5790 C   0  0  0  0  0  0  0  0  0  0  0  0
   -1.1780   -0.8600    4.0150 H   0  0  0  0  0  0  0  0  0  0  0  0
    0.4830   -1.3020    4.0300 H   0  0  0  0  0  0  0  0  0  0  0  0
   -0.7840   -2.5470    3.9590 H   0  0  0  0  0  0  0  0  0  0  0  0
    7.5030    2.3900   -1.4470 C   0  0  0  0  0  0  0  0  0  0  0  0
    6.7890    3.1680   -1.1470 H   0  0  0  0  0  0  0  0  0  0  0  0
    8.4160    2.9140   -1.7550 H   0  0  0  0  0  0  0  0  0  0  0  0
   -8.8750   -2.2200   -3.9590 C   0  0  0  0  0  0  0  0  0  0  0  0
   -8.7600   -3.2740   -4.2360 H   0  0  0  0  0  0  0  0  0  0  0  0
   -7.9480   -1.7030   -4.2360 H   0  0  0  0  0  0  0  0  0  0  0  0
    2.1900    8.1400    0.6710 C   0  0  0  0  0  0  0  0  0  0  0  0
    1.6790    7.5190    1.4150 H   0  0  0  0  0  0  0  0  0  0  0  0
    1.6890    9.1140    0.6640 H   0  0  0  0  0  0  0  0  0  0  0  0
    3.2540   -5.1300    1.0880 C   0  0  0  0  0  0  0  0  0  0  0  0
    4.2040   -5.3720    0.6180 H   0  0  0  0  0  0  0  0  0  0  0  0
    3.1400   -5.7800    1.9600 H   0  0  0  0  0  0  0  0  0  0  0  0
    2.5310   -5.4460    0.3300 H   0  0  0  0  0  0  0  0  0  0  0  0
   -6.4770   -4.0960   -2.4560 O   0  5  0  0  0  0  0  0  0  0  0  0
    8.5470   -0.6560   -5.1690 O   0  5  0  0  0  0  0  0  0  0  0  0
   -1.2930    7.8790   -0.2520 O   0  5  0  0  0  0  0  0  0  0  0  0
    9.0100    1.4730    0.1160 O   0  5  0  0  0  0  0  0  0  0  0  0
    4.1180    9.4750    0.9940 O   0  5  0  0  0  0  0  0  0  0  0  0
  -10.0980   -0.3300   -4.6620 O   0  5  0  0  0  0  0  0  0  0  0  0
   -3.7970   -3.0680    0.6140 C   0  0  0  0  0  0  0  0  0  0  0  0
   -3.6720   -4.1330    0.8340 H   0  0  0  0  0  0  0  0  0  0  0  0
   -3.5350   -2.9100   -0.4370 H   0  0  0  0  0  0  0  0  0  0  0  0
   -4.8660   -2.8710    0.7370 H   0  0  0  0  0  0  0  0  0  0  0  0
   -3.4170   -2.5450    2.9900 C   0  0  0  0  0  0  0  0  0  0  0  0
   -3.1340   -3.5630    3.2690 H   0  0  0  0  0  0  0  0  0  0  0  0
   -4.5110   -2.4920    3.0580 H   0  0  0  0  0  0  0  0  0  0  0  0
   -3.0440   -1.8630    3.7540 H   0  0  0  0  0  0  0  0  0  0  0  0
    7.4400   -3.8380   -3.0040 C   0  0  0  0  0  0  0  0  0  0  0  0
    7.5400   -4.8840   -2.6950 H   0  0  0  0  0  0  0  0  0  0  0  0
    8.4230   -3.4920   -3.3450 H   0  0  0  0  0  0  0  0  0  0  0  0
    6.7670   -3.8090   -3.8690 H   0  0  0  0  0  0  0  0  0  0  0  0
    6.4080   -4.6660    1.3440 C   0  0  0  0  0  0  0  0  0  0  0  0
    5.6960   -5.1670    2.0030 H   0  0  0  0  0  0  0  0  0  0  0  0
    6.5140   -5.2690    0.4400 H   0  0  0  0  0  0  0  0  0  0  0  0
    7.3620   -4.7350    1.8820 H   0  0  0  0  0  0  0  0  0  0  0  0
   -6.5640    0.2190    1.3930 H   0  0  0  0  0  0  0  0  0  0  0  0
   -0.5940    3.8710    1.0410 H   0  0  0  0  0  0  0  0  0  0  0  0
   -4.5730    1.7790    0.7990 H   0  0  0  0  0  0  0  0  0  0  0  0
    1.7670   -1.2280    2.1530 H   0  0  0  0  0  0  0  0  0  0  0  0
   -3.1720    4.1270   -1.4980 H   0  0  0  0  0  0  0  0  0  0  0  0
   -4.5850    0.0130   -1.6520 H   0  0  0  0  0  0  0  0  0  0  0  0
   -5.1880    4.9020   -0.3350 H   0  0  0  0  0  0  0  0  0  0  0  0
   -7.4420    0.5200   -1.5370 H   0  0  0  0  0  0  0  0  0  0  0  0
   -2.4410    4.8210    2.2100 H   0  0  0  0  0  0  0  0  0  0  0  0
   -6.4750    2.6490   -1.3500 H   0  0  0  0  0  0  0  0  0  0  0  0
   -1.2990   -2.2780    0.2250 H   0  0  0  0  0  0  0  0  0  0  0  0
    5.2290   -1.7560   -0.2720 H   0  0  0  0  0  0  0  0  0  0  0  0
   -3.9960    6.4690    1.3090 H   0  0  0  0  0  0  0  0  0  0  0  0
   -4.2390   -0.4270    1.7800 H   0  0  0  0  0  0  0  0  0  0  0  0
    0.8070    6.6620   -2.1820 H   0  0  0  0  0  0  0  0  0  0  0  0
   -7.0870   -1.7650   -1.8380 H   0  0  0  0  0  0  0  0  0  0  0  0
    8.9120    0.9190   -3.0380 H   0  0  0  0  0  0  0  0  0  0  0  0
  1  3  1  0  0  0  0
  1 13  2  0  0  0  0
  1 21  1  0  0  0  0
  2  3  1  0  0  0  0
  2  8  1  0  0  0  0
  2 41  1  0  0  0  0
  2103  1  0  0  0  0
  3 47  1  0  0  0  0
  3120  1  0  0  0  0
  4  8  1  0  0  0  0
  4 20  1  0  0  0  0
  4 44  1  0  0  0  0
  4107  1  0  0  0  0
  5 12  1  0  0  0  0
  5 17  1  0  0  0  0
  5 23  1  0  0  0  0
  5146  1  0  0  0  0
  6 11  1  0  0  0  0
  6 18  1  0  0  0  0
  6 24  1  0  0  0  0
  6147  1  0  0  0  0
  7 10  1  0  0  0  0
  7 19  1  0  0  0  0
  7 25  1  0  0  0  0
  7148  1  0  0  0  0
  8 16  1  0  0  0  0
  8149  1  0  0  0  0
  9 11  1  0  0  0  0
  9 15  1  0  0  0  0
  9 25  1  0  0  0  0
  9150  1  0  0  0  0
 10 12  1  0  0  0  0
 10 37  1  0  0  0  0
 10151  1  0  0  0  0
 13 14  1  0  0  0  0
 13 16  1  0  0  0  0
 15 22  1  0  0  0  0
 15 93  1  0  0  0  0
 15152  1  0  0  0  0
 16 62  2  0  0  0  0
 17 19  1  0  0  0  0
 17 97  1  0  0  0  0
 17153  1  0  0  0  0
 18 22  1  0  0  0  0
 18 95  1  0  0  0  0
 18154  1  0  0  0  0
 19 99  1  0  0  0  0
 19155  1  0  0  0  0
 20 26  1  0  0  0  0
 20 50  1  0  0  0  0
 20156  1  0  0  0  0
 21 29  1  0  0  0  0
 21 36  1  0  0  0  0
 21157  1  0  0  0  0
 22101  1  0  0  0  0
 22158  1  0  0  0  0
 23 32  1  0  0  0  0
 23 63  2  0  0  0  0
 24 34  1  0  0  0  0
 24 64  2  0  0  0  0
 26 38  1  0  0  0  0
 26130  1  0  0  0  0
 26134  1  0  0  0  0
 27 28  1  0  0  0  0
 27 39  1  0  0  0  0
 27 71  2  0  0  0  0
 28 29  1  0  0  0  0
 28 72  1  0  0  0  0
 28138  1  0  0  0  0
 29 30  1  0  0  0  0
 29 31  1  0  0  0  0
 32 33  1  0  0  0  0
 32 57  1  0  0  0  0
 34 35  1  0  0  0  0
 34 56  1  0  0  0  0
 36 65  1  0  0  0  0
 36 75  1  0  0  0  0
 36142  1  0  0  0  0
 37 38  1  0  0  0  0
 38 68  1  0  0  0  0
 38159  1  0  0  0  0
 39 40  1  0  0  0  0
 39 58  1  0  0  0  0
 41 42  1  0  0  0  0
 41 43  1  0  0  0  0
 41 50  1  0  0  0  0
 44 45  1  0  0  0  0
 44 46  1  0  0  0  0
 44 68  1  0  0  0  0
 47 48  1  0  0  0  0
 47 49  1  0  0  0  0
 47 65  1  0  0  0  0
 50 51  1  0  0  0  0
 50 52  1  0  0  0  0
 53 57  1  0  0  0  0
 53 80  2  0  0  0  0
 53124  1  0  0  0  0
 54 58  1  0  0  0  0
 54 78  2  0  0  0  0
 54125  1  0  0  0  0
 55 56  1  0  0  0  0
 55 79  2  0  0  0  0
 55126  1  0  0  0  0
 56 84  1  0  0  0  0
 56160  1  0  0  0  0
 57 90  1  0  0  0  0
 57161  1  0  0  0  0
 58 87  1  0  0  0  0
 58162  1  0  0  0  0
 59 82  2  0  0  0  0
 59114  1  0  0  0  0
 59129  1  0  0  0  0
 60 81  2  0  0  0  0
 60111  1  0  0  0  0
 60127  1  0  0  0  0
 61 83  2  0  0  0  0
 61117  1  0  0  0  0
 61128  1  0  0  0  0
 65 66  1  0  0  0  0
 65 67  1  0  0  0  0
 68 69  1  0  0  0  0
 68 70  1  0  0  0  0
 72 73  1  0  0  0  0
 72 74  1  0  0  0  0
 72 75  1  0  0  0  0
 75 76  1  0  0  0  0
 75 77  1  0  0  0  0
 84 85  1  0  0  0  0
 84 86  1  0  0  0  0
 84117  1  0  0  0  0
 87 88  1  0  0  0  0
 87 89  1  0  0  0  0
 87111  1  0  0  0  0
 90 91  1  0  0  0  0
 90 92  1  0  0  0  0
 90114  1  0  0  0  0
 93 94  1  0  0  0  0
 95 96  1  0  0  0  0
 97 98  1  0  0  0  0
 99100  1  0  0  0  0
101102  1  0  0  0  0
103104  1  0  0  0  0
103105  1  0  0  0  0
103106  1  0  0  0  0
107108  1  0  0  0  0
107109  1  0  0  0  0
107110  1  0  0  0  0
111112  1  0  0  0  0
111113  1  0  0  0  0
114115  1  0  0  0  0
114116  1  0  0  0  0
117118  1  0  0  0  0
117119  1  0  0  0  0
120121  1  0  0  0  0
120122  1  0  0  0  0
120123  1  0  0  0  0
130131  1  0  0  0  0
130132  1  0  0  0  0
130133  1  0  0  0  0
134135  1  0  0  0  0
134136  1  0  0  0  0
134137  1  0  0  0  0
138139  1  0  0  0  0
138140  1  0  0  0  0
138141  1  0  0  0  0
142143  1  0  0  0  0
142144  1  0  0  0  0
142145  1  0  0  0  0
M  CHG  1 124  -1
M  CHG  1 125  -1
M  CHG  1 126  -1
M  CHG  1 127  -1
M  CHG  1 128  -1
M  CHG  1 129  -1
M  END
>  <IDNUMBER>
AG-227/21016014

>  <NAME>
Glycyrrhizic acid, derivative of

>  <ADD_INFO>
http://www.specs.net/enter.php?specsid=AG-227/21016014

>  <H_ACCEPTORS>
28

>  <H_DONORS>
14

>  <ROTATABLE_BONDS>
25

>  <LOGP>
1.33

>  <LOGS>
-9.1499996

>  <TPSA>
466.23999

>  <PRICE>
N04

$$$$
AG-667/03555034
  MOE2011           3D

 28 30  0  0  0  0  0  0  0  0999 V2000
    1.1700   -0.6780   -0.1450 C   0  0  0  0  0  0  0  0  0  0  0  0
    1.0710    0.7120   -0.2560 C   0  0  0  0  0  0  0  0  0  0  0  0
   -1.3520    0.4840   -0.2780 C   0  0  0  0  0  0  0  0  0  0  0  0
    0.0560   -1.5370   -0.0880 C   0  0  0  0  0  0  0  0  0  0  0  0
   -1.1900   -0.8980   -0.1690 C   0  0  0  0  0  0  0  0  0  0  0  0
   -0.2040    1.3040   -0.2920 C   0  0  0  0  0  0  0  0  0  0  0  0
    2.4530   -1.2890   -0.0860 O   0  0  0  0  0  0  0  0  0  0  0  0
    2.3010    1.4960   -0.3290 C   0  0  0  0  0  0  0  0  0  0  0  0
    2.2290    2.5740   -0.4340 H   0  0  0  0  0  0  0  0  0  0  0  0
    3.6310   -0.5600   -0.1430 C   0  0  0  0  0  0  0  0  0  0  0  0
    3.4930    0.8970   -0.2760 C   0  0  0  0  0  0  0  0  0  0  0  0
    4.4160    1.4630   -0.3310 H   0  0  0  0  0  0  0  0  0  0  0  0
   -2.4190   -1.4980   -0.1640 O   0  0  0  0  0  0  0  0  0  0  0  0
   -2.7550    0.7100   -0.3560 C   0  0  0  0  0  0  0  0  0  0  0  0
   -3.2590    1.6600   -0.4580 H   0  0  0  0  0  0  0  0  0  0  0  0
   -3.3530   -0.5230   -0.2790 C   0  0  0  0  0  0  0  0  0  0  0  0
   -4.3800   -0.8600   -0.2930 H   0  0  0  0  0  0  0  0  0  0  0  0
    4.7360   -1.0870   -0.0890 O   0  0  0  0  0  0  0  0  0  0  0  0
    0.3270   -2.8900    0.0230 O   0  0  0  0  0  0  0  0  0  0  0  0
   -0.3170    2.6720   -0.4310 O   0  0  0  0  0  0  0  0  0  0  0  0
   -0.7960   -3.7550    0.1220 C   0  0  0  0  0  0  0  0  0  0  0  0
   -0.4190   -4.7760    0.2360 H   0  0  0  0  0  0  0  0  0  0  0  0
   -1.3960   -3.7280   -0.7930 H   0  0  0  0  0  0  0  0  0  0  0  0
   -1.3970   -3.5260    1.0080 H   0  0  0  0  0  0  0  0  0  0  0  0
   -0.6060    3.2720    0.8330 C   0  0  0  0  0  0  0  0  0  0  0  0
   -0.5700    4.3580    0.7040 H   0  0  0  0  0  0  0  0  0  0  0  0
    0.1400    2.9960    1.5870 H   0  0  0  0  0  0  0  0  0  0  0  0
   -1.6110    3.0060    1.1780 H   0  0  0  0  0  0  0  0  0  0  0  0
  1  2  1  0  0  0  0
  1  4  2  0  0  0  0
  1  7  1  0  0  0  0
  2  6  2  0  0  0  0
  2  8  1  0  0  0  0
  3  5  2  0  0  0  0
  3  6  1  0  0  0  0
  3 14  1  0  0  0  0
  4  5  1  0  0  0  0
  4 19  1  0  0  0  0
  5 13  1  0  0  0  0
  6 20  1  0  0  0  0
  7 10  1  0  0  0  0
  8  9  1  0  0  0  0
  8 11  2  0  0  0  0
 10 11  1  0  0  0  0
 10 18  2  0  0  0  0
 11 12  1  0  0  0  0
 13 16  1  0  0  0  0
 14 15  1  0  0  0  0
 14 16  2  0  0  0  0
 16 17  1  0  0  0  0
 19 21  1  0  0  0  0
 20 25  1  0  0  0  0
 21 22  1  0  0  0  0
 21 23  1  0  0  0  0
 21 24  1  0  0  0  0
 25 26  1  0  0  0  0
 25 27  1  0  0  0  0
 25 28  1  0  0  0  0
M  END
>  <IDNUMBER>
AG-667/03555034

>  <NAME>
Isopimpinellin (4,9-Dimethoxypsoralen)

>  <ADD_INFO>
http://www.specs.net/enter.php?specsid=AG-667/03555034

>  <H_ACCEPTORS>
1

>  <H_DONORS>
0

>  <ROTATABLE_BONDS>
2

>  <LOGP>
2.22

>  <LOGS>
-2.8900001

>  <TPSA>
57.900002

>  <PRICE>
N07

$$$$
AG-667/03559038
  MOE2011           3D

 44 45  0  0  0  0  0  0  0  0999 V2000
   -4.3240    0.3880   -0.8100 C   0  0  0  0  0  0  0  0  0  0  0  0
   -5.3460    1.3160   -1.0940 O   0  0  0  0  0  0  0  0  0  0  0  0
   -3.3380    0.1980   -1.7710 C   0  0  0  0  0  0  0  0  0  0  0  0
   -3.3630    0.7540   -2.7030 H   0  0  0  0  0  0  0  0  0  0  0  0
   -4.3130   -0.3200    0.3860 C   0  0  0  0  0  0  0  0  0  0  0  0
   -6.3830    1.5480   -0.1960 C   0  0  0  0  0  0  0  0  0  0  0  0
   -5.3750   -0.0840    1.3510 C   0  0  0  0  0  0  0  0  0  0  0  0
   -5.3690   -0.6280    2.2890 H   0  0  0  0  0  0  0  0  0  0  0  0
   -2.3180   -0.7240   -1.5310 C   0  0  0  0  0  0  0  0  0  0  0  0
   -2.2670   -1.4620   -0.3360 C   0  0  0  0  0  0  0  0  0  0  0  0
   -6.3430    0.7940    1.0700 C   0  0  0  0  0  0  0  0  0  0  0  0
   -7.1500    0.9900    1.7670 H   0  0  0  0  0  0  0  0  0  0  0  0
   -3.2880   -1.2440    0.6160 C   0  0  0  0  0  0  0  0  0  0  0  0
   -3.2820   -1.8120    1.5450 H   0  0  0  0  0  0  0  0  0  0  0  0
    0.2140   -2.1570   -0.1370 C   0  0  0  0  0  0  0  0  0  0  0  0
    0.7960   -2.8090   -0.7900 H   0  0  0  0  0  0  0  0  0  0  0  0
   -1.2410   -2.5400   -0.0470 C   0  0  0  0  0  0  0  0  0  0  0  0
   -1.4110   -2.9840    0.9420 H   0  0  0  0  0  0  0  0  0  0  0  0
   -1.4270   -3.3520   -0.7620 H   0  0  0  0  0  0  0  0  0  0  0  0
   -7.2910    2.3390   -0.4290 O   0  0  0  0  0  0  0  0  0  0  0  0
    0.8630   -1.1530    0.4870 C   0  0  0  0  0  0  0  0  0  0  0  0
    4.9710    1.3320   -0.2080 C   0  0  0  0  0  0  0  0  0  0  0  0
    4.1050    0.5000   -0.8170 C   0  0  0  0  0  0  0  0  0  0  0  0
    4.4780   -0.1370   -1.6190 H   0  0  0  0  0  0  0  0  0  0  0  0
   -1.4050   -0.8610   -2.5390 O   0  0  0  0  0  0  0  0  0  0  0  0
   -0.6410   -1.3600   -2.2130 H   0  0  0  0  0  0  0  0  0  0  0  0
    2.6340    0.3440   -0.5420 C   0  0  0  0  0  0  0  0  0  0  0  0
    2.2300    1.2190   -0.0240 H   0  0  0  0  0  0  0  0  0  0  0  0
    2.1120    0.3060   -1.5070 H   0  0  0  0  0  0  0  0  0  0  0  0
    2.3470   -0.9350    0.2520 C   0  0  0  0  0  0  0  0  0  0  0  0
    2.8600   -0.9010    1.2220 H   0  0  0  0  0  0  0  0  0  0  0  0
    2.7770   -1.7940   -0.2810 H   0  0  0  0  0  0  0  0  0  0  0  0
    0.2230   -0.2170    1.4750 C   0  0  0  0  0  0  0  0  0  0  0  0
    0.8850   -0.0580    2.3340 H   0  0  0  0  0  0  0  0  0  0  0  0
   -0.7140   -0.6080    1.8800 H   0  0  0  0  0  0  0  0  0  0  0  0
    0.0230    0.7530    1.0100 H   0  0  0  0  0  0  0  0  0  0  0  0
    4.6290    2.2570    0.9260 C   0  0  0  0  0  0  0  0  0  0  0  0
    5.3190    2.0970    1.7620 H   0  0  0  0  0  0  0  0  0  0  0  0
    3.6200    2.1100    1.3180 H   0  0  0  0  0  0  0  0  0  0  0  0
    4.7180    3.2990    0.6020 H   0  0  0  0  0  0  0  0  0  0  0  0
    6.4140    1.3850   -0.6380 C   0  0  0  0  0  0  0  0  0  0  0  0
    6.6740    2.3970   -0.9660 H   0  0  0  0  0  0  0  0  0  0  0  0
    6.6260    0.7030   -1.4680 H   0  0  0  0  0  0  0  0  0  0  0  0
    7.0690    1.1090    0.1950 H   0  0  0  0  0  0  0  0  0  0  0  0
  1  2  1  0  0  0  0
  1  3  2  0  0  0  0
  1  5  1  0  0  0  0
  2  6  1  0  0  0  0
  3  4  1  0  0  0  0
  3  9  1  0  0  0  0
  5  7  1  0  0  0  0
  5 13  2  0  0  0  0
  6 11  1  0  0  0  0
  6 20  2  0  0  0  0
  7  8  1  0  0  0  0
  7 11  2  0  0  0  0
  9 10  2  0  0  0  0
  9 25  1  0  0  0  0
 10 13  1  0  0  0  0
 10 17  1  0  0  0  0
 11 12  1  0  0  0  0
 13 14  1  0  0  0  0
 15 16  1  0  0  0  0
 15 17  1  0  0  0  0
 15 21  2  0  0  0  0
 17 18  1  0  0  0  0
 17 19  1  0  0  0  0
 21 30  1  0  0  0  0
 21 33  1  0  0  0  0
 22 23  2  0  0  0  0
 22 37  1  0  0  0  0
 22 41  1  0  0  0  0
 23 24  1  0  0  0  0
 23 27  1  0  0  0  0
 25 26  1  0  0  0  0
 27 28  1  0  0  0  0
 27 29  1  0  0  0  0
 27 30  1  0  0  0  0
 30 31  1  0  0  0  0
 30 32  1  0  0  0  0
 33 34  1  0  0  0  0
 33 35  1  0  0  0  0
 33 36  1  0  0  0  0
 37 38  1  0  0  0  0
 37 39  1  0  0  0  0
 37 40  1  0  0  0  0
 41 42  1  0  0  0  0
 41 43  1  0  0  0  0
 41 44  1  0  0  0  0
M  END
>  <IDNUMBER>
AG-667/03559038

>  <NAME>
Ostruthin

>  <ADD_INFO>
http://www.specs.net/enter.php?specsid=AG-667/03559038

>  <H_ACCEPTORS>
1

>  <H_DONORS>
1

>  <ROTATABLE_BONDS>
5

>  <LOGP>
5.6799998

>  <LOGS>
-5.6500001

>  <TPSA>
46.529999

>  <PRICE>
N07

$$$$
AG-670/20238004
  MOE2011           3D

 33 35  0  0  1  0  0  0  0  0999 V2000
    0.5480   -0.5210   -0.2310 N   0  0  0  0  0  0  0  0  0  0  0  0
   -0.7970   -0.0030   -0.3470 C   0  0  3  0  0  0  0  0  0  0  0  0
    1.6860    0.2310   -0.3340 C   0  0  0  0  0  0  0  0  0  0  0  0
    2.7240   -0.6670   -0.1560 C   0  0  0  0  0  0  0  0  0  0  0  0
    2.2410   -1.9410    0.0480 N   0  0  0  0  0  0  0  0  0  0  0  0
   -1.2810    0.7920    0.8710 C   0  0  3  0  0  0  0  0  0  0  0  0
    0.9300   -1.8150    0.0000 C   0  0  0  0  0  0  0  0  0  0  0  0
    0.2160   -2.6200    0.1250 H   0  0  0  0  0  0  0  0  0  0  0  0
   -1.7320   -1.0840   -0.5490 O   0  0  0  0  0  0  0  0  0  0  0  0
   -2.7840    0.6510    0.7200 C   0  0  3  0  0  0  0  0  0  0  0  0
    4.0250   -0.1510   -0.2100 C   0  0  0  0  0  0  0  0  0  0  0  0
   -2.9130   -0.8010    0.2370 C   0  0  3  0  0  0  0  0  0  0  0  0
    1.7800    1.5530   -0.5530 N   0  0  0  0  0  0  0  0  0  0  0  0
    4.1820    1.1860   -0.4310 N   0  0  0  0  0  0  0  0  0  0  0  0
    3.0710    1.9420   -0.5870 C   0  0  0  0  0  0  0  0  0  0  0  0
    3.2410    3.0000   -0.7620 H   0  0  0  0  0  0  0  0  0  0  0  0
    5.1510   -0.9520   -0.0460 N   0  0  0  0  0  0  0  0  0  0  0  0
    5.0330   -1.9460    0.1210 H   0  0  0  0  0  0  0  0  0  0  0  0
   -0.8780    0.1830    2.0990 O   0  0  0  0  0  0  0  0  0  0  0  0
   -1.0400    0.8190    2.8180 H   0  0  0  0  0  0  0  0  0  0  0  0
   -3.2670    1.5650   -0.2720 O   0  0  0  0  0  0  0  0  0  0  0  0
   -3.2040    2.4650    0.1030 H   0  0  0  0  0  0  0  0  0  0  0  0
   -4.1670   -1.0960   -0.5900 C   0  0  0  0  0  0  0  0  0  0  0  0
   -5.0620   -1.0100    0.0340 H   0  0  0  0  0  0  0  0  0  0  0  0
   -4.1250   -2.1080   -1.0050 H   0  0  0  0  0  0  0  0  0  0  0  0
    6.4330   -0.4320   -0.1030 O   0  0  0  0  0  0  0  0  0  0  0  0
    6.2700    0.5180   -0.2800 H   0  0  0  0  0  0  0  0  0  0  0  0
   -4.3150   -0.1960   -1.6880 O   0  0  0  0  0  0  0  0  0  0  0  0
   -3.9920    0.6790   -1.3600 H   0  0  0  0  0  0  0  0  0  0  0  0
   -0.8360    0.6110   -1.2560 H   0  0  0  0  0  0  0  0  0  0  0  0
   -0.9170    1.8240    0.8470 H   0  0  0  0  0  0  0  0  0  0  0  0
   -3.3470    0.8100    1.6450 H   0  0  0  0  0  0  0  0  0  0  0  0
   -2.8750   -1.4860    1.0930 H   0  0  0  0  0  0  0  0  0  0  0  0
  1  2  1  0  0  0  0
  1  3  1  0  0  0  0
  1  7  1  0  0  0  0
  2  6  1  0  0  0  0
  2  9  1  0  0  0  0
  2 30  1  0  0  0  0
  3  4  2  0  0  0  0
  3 13  1  0  0  0  0
  4  5  1  0  0  0  0
  4 11  1  0  0  0  0
  5  7  2  0  0  0  0
  6 10  1  0  0  0  0
  6 19  1  0  0  0  0
  6 31  1  0  0  0  0
  7  8  1  0  0  0  0
  9 12  1  0  0  0  0
 10 12  1  0  0  0  0
 10 21  1  0  0  0  0
 10 32  1  0  0  0  0
 11 14  2  0  0  0  0
 11 17  1  0  0  0  0
 12 23  1  0  0  0  0
 12 33  1  0  0  0  0
 13 15  2  0  0  0  0
 14 15  1  0  0  0  0
 15 16  1  0  0  0  0
 17 18  1  0  0  0  0
 17 26  1  0  0  0  0
 19 20  1  0  0  0  0
 21 22  1  0  0  0  0
 23 24  1  0  0  0  0
 23 25  1  0  0  0  0
 23 28  1  0  0  0  0
 26 27  1  0  0  0  0
 28 29  1  0  0  0  0
M  END
>  <IDNUMBER>
AG-670/20238004

>  <NAME>
2-[6-(hydroxyamino)-9H-purin-9-yl]-5-(hydroxymethyl)tetrahydro-3,4-furandiol

>  <ADD_INFO>
http://www.specs.net/enter.php?specsid=AG-670/20238004

>  <H_ACCEPTORS>
8

>  <H_DONORS>
5

>  <ROTATABLE_BONDS>
3

>  <LOGP>
-1.42

>  <LOGS>
-1.36

>  <TPSA>
145.78

>  <PRICE>
N04

$$$$
AG-670/20238030
  MOE2011           3D

 45 48  0  0  1  0  0  0  0  0999 V2000
   -0.9770   -0.7910    0.0230 N   0  0  0  0  0  0  0  0  0  0  0  0
   -2.3400   -0.7050   -0.4570 C   0  0  3  0  0  0  0  0  0  0  0  0
   -0.0440   -1.7160   -0.3620 C   0  0  0  0  0  0  0  0  0  0  0  0
    1.1250   -1.3530    0.2960 C   0  0  0  0  0  0  0  0  0  0  0  0
    0.8890   -0.2660    1.1140 N   0  0  0  0  0  0  0  0  0  0  0  0
   -3.4190   -0.9660    0.6080 C   0  0  3  0  0  0  0  0  0  0  0  0
   -0.3730    0.0500    0.9170 C   0  0  0  0  0  0  0  0  0  0  0  0
   -0.8890    0.8800    1.3820 H   0  0  0  0  0  0  0  0  0  0  0  0
   -2.5470    0.6410   -0.9550 O   0  0  0  0  0  0  0  0  0  0  0  0
   -4.5180   -0.0330    0.1280 C   0  0  3  0  0  0  0  0  0  0  0  0
   -3.6920    1.1760   -0.2790 C   0  0  3  0  0  0  0  0  0  0  0  0
    2.2800   -2.1190    0.0230 C   0  0  0  0  0  0  0  0  0  0  0  0
   -0.2150   -2.7360   -1.2150 N   0  0  0  0  0  0  0  0  0  0  0  0
    2.1390   -3.1740   -0.8290 N   0  0  0  0  0  0  0  0  0  0  0  0
    3.5470   -1.9110    0.5210 N   0  0  0  0  0  0  0  0  0  0  0  0
    4.2360   -2.5930    0.2340 H   0  0  0  0  0  0  0  0  0  0  0  0
    0.9320   -3.4170   -1.3830 C   0  0  0  0  0  0  0  0  0  0  0  0
    0.8840   -4.2700   -2.0530 H   0  0  0  0  0  0  0  0  0  0  0  0
   -3.8600   -2.3170    0.6150 O   0  0  0  0  0  0  0  0  0  0  0  0
   -4.3670   -2.4680    1.4320 H   0  0  0  0  0  0  0  0  0  0  0  0
   -5.4800    0.3110    1.1130 O   0  0  0  0  0  0  0  0  0  0  0  0
   -5.9850   -0.4970    1.3200 H   0  0  0  0  0  0  0  0  0  0  0  0
    3.9410   -0.8100    1.3700 C   0  0  0  0  0  0  0  0  0  0  0  0
    3.2180   -0.6520    2.1780 H   0  0  0  0  0  0  0  0  0  0  0  0
    4.8810   -1.0760    1.8700 H   0  0  0  0  0  0  0  0  0  0  0  0
   -4.4740    2.1460   -1.1500 C   0  0  0  0  0  0  0  0  0  0  0  0
   -4.8760    1.6460   -2.0380 H   0  0  0  0  0  0  0  0  0  0  0  0
   -3.8260    2.9530   -1.5060 H   0  0  0  0  0  0  0  0  0  0  0  0
    4.1910    0.4520    0.5780 C   0  0  0  0  0  0  0  0  0  0  0  0
   -5.5530    2.7220   -0.4210 O   0  0  0  0  0  0  0  0  0  0  0  0
   -5.9130    2.0420    0.1870 H   0  0  0  0  0  0  0  0  0  0  0  0
    5.1130    0.4700   -0.4800 C   0  0  0  0  0  0  0  0  0  0  0  0
    5.6470   -0.4360   -0.7560 H   0  0  0  0  0  0  0  0  0  0  0  0
    3.5240    1.6410    0.9080 C   0  0  0  0  0  0  0  0  0  0  0  0
    2.7990    1.6550    1.7190 H   0  0  0  0  0  0  0  0  0  0  0  0
    5.3500    1.6450   -1.1960 C   0  0  0  0  0  0  0  0  0  0  0  0
    6.0620    1.6450   -2.0170 H   0  0  0  0  0  0  0  0  0  0  0  0
    3.7600    2.8150    0.1900 C   0  0  0  0  0  0  0  0  0  0  0  0
    3.2240    3.7240    0.4500 H   0  0  0  0  0  0  0  0  0  0  0  0
    4.6750    2.8170   -0.8610 C   0  0  0  0  0  0  0  0  0  0  0  0
    4.8620    3.7310   -1.4190 H   0  0  0  0  0  0  0  0  0  0  0  0
   -2.4490   -1.3860   -1.3080 H   0  0  0  0  0  0  0  0  0  0  0  0
   -3.0870   -0.7080    1.6200 H   0  0  0  0  0  0  0  0  0  0  0  0
   -5.0470   -0.4710   -0.7280 H   0  0  0  0  0  0  0  0  0  0  0  0
   -3.3480    1.7120    0.6160 H   0  0  0  0  0  0  0  0  0  0  0  0
  1  2  1  0  0  0  0
  1  3  1  0  0  0  0
  1  7  1  0  0  0  0
  2  6  1  0  0  0  0
  2  9  1  0  0  0  0
  2 42  1  0  0  0  0
  3  4  2  0  0  0  0
  3 13  1  0  0  0  0
  4  5  1  0  0  0  0
  4 12  1  0  0  0  0
  5  7  2  0  0  0  0
  6 10  1  0  0  0  0
  6 19  1  0  0  0  0
  6 43  1  0  0  0  0
  7  8  1  0  0  0  0
  9 11  1  0  0  0  0
 10 11  1  0  0  0  0
 10 21  1  0  0  0  0
 10 44  1  0  0  0  0
 11 26  1  0  0  0  0
 11 45  1  0  0  0  0
 12 14  2  0  0  0  0
 12 15  1  0  0  0  0
 13 17  2  0  0  0  0
 14 17  1  0  0  0  0
 15 16  1  0  0  0  0
 15 23  1  0  0  0  0
 17 18  1  0  0  0  0
 19 20  1  0  0  0  0
 21 22  1  0  0  0  0
 23 24  1  0  0  0  0
 23 25  1  0  0  0  0
 23 29  1  0  0  0  0
 26 27  1  0  0  0  0
 26 28  1  0  0  0  0
 26 30  1  0  0  0  0
 29 32  2  0  0  0  0
 29 34  1  0  0  0  0
 30 31  1  0  0  0  0
 32 33  1  0  0  0  0
 32 36  1  0  0  0  0
 34 35  1  0  0  0  0
 34 38  2  0  0  0  0
 36 37  1  0  0  0  0
 36 40  2  0  0  0  0
 38 39  1  0  0  0  0
 38 40  1  0  0  0  0
 40 41  1  0  0  0  0
M  END
>  <IDNUMBER>
AG-670/20238030

>  <NAME>
2-[6-(benzylamino)-9H-purin-9-yl]-5-(hydroxymethyl)tetrahydro-3,4-furandiol

>  <ADD_INFO>
http://www.specs.net/enter.php?specsid=AG-670/20238030

>  <H_ACCEPTORS>
9

>  <H_DONORS>
4

>  <ROTATABLE_BONDS>
5

>  <LOGP>
0.57999998

>  <LOGS>
-2.3

>  <TPSA>
125.55

>  <PRICE>
N04

$$$$
AG-690/08413001
  MOE2011           3D

 44 46  0  0  1  0  0  0  0  0999 V2000
   -2.3780    0.8170   -0.3920 N   0  3  3  0  0  0  0  0  0  0  0  0
   -2.1990    0.6040   -1.3830 H   0  0  0  0  0  0  0  0  0  0  0  0
    2.3610   -0.0070   -0.6600 C   0  0  0  0  0  0  0  0  0  0  0  0
   -2.1610   -0.4720    0.3870 C   0  0  3  0  0  0  0  0  0  0  0  0
    3.7860   -0.2530   -0.3190 C   0  0  0  0  0  0  0  0  0  0  0  0
    1.5840   -1.0430   -0.2520 O   0  0  0  0  0  0  0  0  0  0  0  0
   -0.6670   -0.6900    0.6920 C   0  0  3  0  0  0  0  0  0  0  0  0
    0.1850   -0.9550   -0.5670 C   0  0  0  0  0  0  0  0  0  0  0  0
   -0.0070   -0.2260   -1.3600 H   0  0  0  0  0  0  0  0  0  0  0  0
   -0.0780   -1.9310   -0.9870 H   0  0  0  0  0  0  0  0  0  0  0  0
    4.7080    0.7720   -0.5700 C   0  0  0  0  0  0  0  0  0  0  0  0
    4.3770    1.7140   -1.0030 H   0  0  0  0  0  0  0  0  0  0  0  0
    1.9650    1.0110   -1.2070 O   0  0  0  0  0  0  0  0  0  0  0  0
    6.0550    0.5800   -0.2630 C   0  0  0  0  0  0  0  0  0  0  0  0
    7.2960    1.9670   -0.5990 Br  0  0  0  0  0  0  0  0  0  0  0  0
   -1.4210    1.9470   -0.0590 C   0  0  0  0  0  0  0  0  0  0  0  0
   -0.6120    1.9050   -0.7940 H   0  0  0  0  0  0  0  0  0  0  0  0
   -1.9490    2.8970   -0.1980 H   0  0  0  0  0  0  0  0  0  0  0  0
   -3.8290    1.2580   -0.3340 C   0  0  0  0  0  0  0  0  0  0  0  0
   -3.9700    1.8550    0.5740 H   0  0  0  0  0  0  0  0  0  0  0  0
   -3.9910    1.8900   -1.2130 H   0  0  0  0  0  0  0  0  0  0  0  0
    4.2270   -1.4620    0.2360 C   0  0  0  0  0  0  0  0  0  0  0  0
    3.5340   -2.2750    0.4380 H   0  0  0  0  0  0  0  0  0  0  0  0
   -0.8940    1.7970    1.3530 C   0  0  0  0  0  0  0  0  0  0  0  0
   -0.2230    2.6300    1.5930 H   0  0  0  0  0  0  0  0  0  0  0  0
   -1.7290    1.8660    2.0620 H   0  0  0  0  0  0  0  0  0  0  0  0
   -0.1550    0.4740    1.5710 C   0  0  0  0  0  0  0  0  0  0  0  0
   -0.2830    0.1980    2.6260 H   0  0  0  0  0  0  0  0  0  0  0  0
    0.9200    0.6320    1.4530 H   0  0  0  0  0  0  0  0  0  0  0  0
    5.5790   -1.6430    0.5380 C   0  0  0  0  0  0  0  0  0  0  0  0
    5.9190   -2.5830    0.9680 H   0  0  0  0  0  0  0  0  0  0  0  0
   -2.8600   -1.6040   -0.3790 C   0  0  0  0  0  0  0  0  0  0  0  0
   -2.2270   -2.0210   -1.1680 H   0  0  0  0  0  0  0  0  0  0  0  0
   -3.0510   -2.4270    0.3220 H   0  0  0  0  0  0  0  0  0  0  0  0
    6.4950   -0.6210    0.2900 C   0  0  0  0  0  0  0  0  0  0  0  0
    7.5450   -0.7730    0.5290 H   0  0  0  0  0  0  0  0  0  0  0  0
   -4.7760    0.0570   -0.3390 C   0  0  0  0  0  0  0  0  0  0  0  0
   -5.0330   -0.2030    0.6950 H   0  0  0  0  0  0  0  0  0  0  0  0
   -5.7180    0.3400   -0.8230 H   0  0  0  0  0  0  0  0  0  0  0  0
   -4.1810   -1.1660   -1.0230 C   0  0  0  0  0  0  0  0  0  0  0  0
   -4.0040   -0.9310   -2.0810 H   0  0  0  0  0  0  0  0  0  0  0  0
   -4.8940   -1.9980   -1.0060 H   0  0  0  0  0  0  0  0  0  0  0  0
   -2.6790   -0.3320    1.3460 H   0  0  0  0  0  0  0  0  0  0  0  0
   -0.5710   -1.5950    1.3090 H   0  0  0  0  0  0  0  0  0  0  0  0
  1  2  1  0  0  0  0
  1  4  1  0  0  0  0
  1 16  1  0  0  0  0
  1 19  1  0  0  0  0
  3  5  1  0  0  0  0
  3  6  1  0  0  0  0
  3 13  2  0  0  0  0
  4  7  1  0  0  0  0
  4 32  1  0  0  0  0
  4 43  1  0  0  0  0
  5 11  2  0  0  0  0
  5 22  1  0  0  0  0
  6  8  1  0  0  0  0
  7  8  1  0  0  0  0
  7 27  1  0  0  0  0
  7 44  1  0  0  0  0
  8  9  1  0  0  0  0
  8 10  1  0  0  0  0
 11 12  1  0  0  0  0
 11 14  1  0  0  0  0
 14 15  1  0  0  0  0
 14 35  2  0  0  0  0
 16 17  1  0  0  0  0
 16 18  1  0  0  0  0
 16 24  1  0  0  0  0
 19 20  1  0  0  0  0
 19 21  1  0  0  0  0
 19 37  1  0  0  0  0
 22 23  1  0  0  0  0
 22 30  2  0  0  0  0
 24 25  1  0  0  0  0
 24 26  1  0  0  0  0
 24 27  1  0  0  0  0
 27 28  1  0  0  0  0
 27 29  1  0  0  0  0
 30 31  1  0  0  0  0
 30 35  1  0  0  0  0
 32 33  1  0  0  0  0
 32 34  1  0  0  0  0
 32 40  1  0  0  0  0
 35 36  1  0  0  0  0
 37 38  1  0  0  0  0
 37 39  1  0  0  0  0
 37 40  1  0  0  0  0
 40 41  1  0  0  0  0
 40 42  1  0  0  0  0
M  CHG  1   1   1
M  END
>  <IDNUMBER>
AG-690/08413001

>  <NAME>
octahydro-2H-quinolizin-1-ylmethyl 3-bromobenzoate

>  <ADD_INFO>
http://www.specs.net/enter.php?specsid=AG-690/08413001

>  <H_ACCEPTORS>
3

>  <H_DONORS>
0

>  <ROTATABLE_BONDS>
4

>  <LOGP>
4.9899998

>  <LOGS>
-5.02

>  <TPSA>
29.540001

>  <PRICE>
N08

>  <SALTDATA>
HCl

$$$$
AG-690/12868118
  MOE2011           3D

 82 88  0  0  1  0  0  0  0  0999 V2000
   -1.4830   -1.9460    0.6030 C   0  0  3  0  0  0  0  0  0  0  0  0
   -1.3690   -1.6610   -0.9200 C   0  0  3  0  0  0  0  0  0  0  0  0
   -0.3770    0.4840    0.9480 C   0  0  3  0  0  0  0  0  0  0  0  0
   -0.7050    0.8000   -0.5230 C   0  0  3  0  0  0  0  0  0  0  0  0
   -0.3290   -0.5390   -1.2090 C   0  0  3  0  0  0  0  0  0  0  0  0
   -1.3820   -0.6490    1.4440 C   0  0  3  0  0  0  0  0  0  0  0  0
    1.0730   -0.0600    0.7210 C   0  0  3  0  0  0  0  0  0  0  0  0
    2.0580    1.1160    0.4830 C   0  0  3  0  0  0  0  0  0  0  0  0
    0.1440    1.9660   -1.0440 N   0  3  3  0  0  0  0  0  0  0  0  0
   -0.1640    2.7840   -0.5120 H   0  0  0  0  0  0  0  0  0  0  0  0
   -2.8580   -2.5180    1.0010 C   0  0  3  0  0  0  0  0  0  0  0  0
   -3.6980   -1.2650    0.8060 C   0  0  3  0  0  0  0  0  0  0  0  0
   -2.7280   -1.3810   -1.6050 C   0  0  0  0  0  0  0  0  0  0  0  0
   -2.5970   -0.6650   -2.4270 H   0  0  0  0  0  0  0  0  0  0  0  0
   -3.0510   -2.3050   -2.1060 H   0  0  0  0  0  0  0  0  0  0  0  0
    4.0550   -0.1810    1.0840 C   0  0  0  0  0  0  0  0  0  0  0  0
    1.0220   -0.9090   -0.5710 C   0  0  0  0  0  0  0  0  0  0  0  0
    1.1530   -1.9710   -0.3570 H   0  0  0  0  0  0  0  0  0  0  0  0
    1.8390   -0.6940   -1.2670 H   0  0  0  0  0  0  0  0  0  0  0  0
   -2.8650   -0.2070    1.5480 C   0  0  0  0  0  0  0  0  0  0  0  0
   -3.1520   -0.1990    2.6070 H   0  0  0  0  0  0  0  0  0  0  0  0
   -3.0660    0.7890    1.1610 H   0  0  0  0  0  0  0  0  0  0  0  0
    5.2540   -0.7910    0.4520 C   0  0  0  0  0  0  0  0  0  0  0  0
    3.4010    0.6200    0.2040 O   0  0  0  0  0  0  0  0  0  0  0  0
    1.6500    1.8700   -0.8200 C   0  0  0  0  0  0  0  0  0  0  0  0
    2.0750    1.3830   -1.7070 H   0  0  0  0  0  0  0  0  0  0  0  0
    2.0360    2.8970   -0.8220 H   0  0  0  0  0  0  0  0  0  0  0  0
   -3.8950   -0.9490   -0.6960 C   0  0  3  0  0  0  0  0  0  0  0  0
   -0.3600    1.6320    2.0320 C   0  0  3  0  0  0  0  0  0  0  0  0
    2.0960    2.0800    1.6730 C   0  0  0  0  0  0  0  0  0  0  0  0
    2.4320    1.5640    2.5790 H   0  0  0  0  0  0  0  0  0  0  0  0
    2.8400    2.8680    1.5010 H   0  0  0  0  0  0  0  0  0  0  0  0
    5.9320   -0.2390   -0.6540 C   0  0  0  0  0  0  0  0  0  0  0  0
    3.6950   -0.4500    2.2190 O   0  0  0  0  0  0  0  0  0  0  0  0
   -0.4780   -2.8730    1.0040 O   0  0  0  0  0  0  0  0  0  0  0  0
   -0.4470   -3.5050    0.2500 H   0  0  0  0  0  0  0  0  0  0  0  0
   -0.8380   -2.8710   -1.5200 O   0  0  0  0  0  0  0  0  0  0  0  0
   -0.8980   -2.7880   -2.4890 H   0  0  0  0  0  0  0  0  0  0  0  0
    0.7410    2.6950    1.9490 C   0  0  0  0  0  0  0  0  0  0  0  0
    0.5240    3.4620    1.2010 H   0  0  0  0  0  0  0  0  0  0  0  0
    0.7770    3.2480    2.8970 H   0  0  0  0  0  0  0  0  0  0  0  0
   -3.2510   -3.6140    0.1880 O   0  0  0  0  0  0  0  0  0  0  0  0
   -0.1360    2.3670   -2.4900 C   0  0  0  0  0  0  0  0  0  0  0  0
    0.5460    3.1930   -2.7190 H   0  0  0  0  0  0  0  0  0  0  0  0
    0.1050    1.5220   -3.1400 H   0  0  0  0  0  0  0  0  0  0  0  0
    5.5610    0.9580   -1.2520 N   0  0  0  0  0  0  0  0  0  0  0  0
    4.7330    1.4350   -0.9160 H   0  0  0  0  0  0  0  0  0  0  0  0
    6.0950    1.3560   -2.0120 H   0  0  0  0  0  0  0  0  0  0  0  0
   -4.1200    0.4460   -0.9360 O   0  0  0  0  0  0  0  0  0  0  0  0
    5.7030   -1.9950    1.0240 C   0  0  0  0  0  0  0  0  0  0  0  0
    5.1880   -2.4260    1.8820 H   0  0  0  0  0  0  0  0  0  0  0  0
   -1.6350    2.2030    2.3190 O   0  0  0  0  0  0  0  0  0  0  0  0
    7.0410   -0.9270   -1.1660 C   0  0  0  0  0  0  0  0  0  0  0  0
    7.5880   -0.5290   -2.0180 H   0  0  0  0  0  0  0  0  0  0  0  0
   -4.3790   -4.3110    0.7030 C   0  0  0  0  0  0  0  0  0  0  0  0
   -4.6030   -5.1430    0.0300 H   0  0  0  0  0  0  0  0  0  0  0  0
   -5.2530   -3.6560    0.7460 H   0  0  0  0  0  0  0  0  0  0  0  0
   -4.1600   -4.7160    1.6960 H   0  0  0  0  0  0  0  0  0  0  0  0
   -5.4260    0.8760   -0.5700 C   0  0  0  0  0  0  0  0  0  0  0  0
   -5.5110    1.9400   -0.8040 H   0  0  0  0  0  0  0  0  0  0  0  0
   -5.5990    0.7440    0.5010 H   0  0  0  0  0  0  0  0  0  0  0  0
   -6.1830    0.3330   -1.1450 H   0  0  0  0  0  0  0  0  0  0  0  0
   -2.0750    3.3200    1.5690 C   0  0  0  0  0  0  0  0  0  0  0  0
   -3.1110    3.5270    1.8500 H   0  0  0  0  0  0  0  0  0  0  0  0
   -2.0530    3.1160    0.4990 H   0  0  0  0  0  0  0  0  0  0  0  0
   -1.4850    4.2090    1.8060 H   0  0  0  0  0  0  0  0  0  0  0  0
   -1.5660    2.8390   -2.6740 C   0  0  0  0  0  0  0  0  0  0  0  0
   -1.8290    3.6140   -1.9490 H   0  0  0  0  0  0  0  0  0  0  0  0
   -2.2800    2.0160   -2.5830 H   0  0  0  0  0  0  0  0  0  0  0  0
   -1.6890    3.2620   -3.6770 H   0  0  0  0  0  0  0  0  0  0  0  0
    6.8060   -2.6610    0.4970 C   0  0  0  0  0  0  0  0  0  0  0  0
    7.1470   -3.5930    0.9420 H   0  0  0  0  0  0  0  0  0  0  0  0
    7.4710   -2.1280   -0.6000 C   0  0  0  0  0  0  0  0  0  0  0  0
    8.3320   -2.6450   -1.0170 H   0  0  0  0  0  0  0  0  0  0  0  0
   -1.7430    1.0880   -0.6680 H   0  0  0  0  0  0  0  0  0  0  0  0
   -0.2050   -0.4480   -2.2930 H   0  0  0  0  0  0  0  0  0  0  0  0
   -1.0480   -0.9360    2.4520 H   0  0  0  0  0  0  0  0  0  0  0  0
    1.3850   -0.6830    1.5640 H   0  0  0  0  0  0  0  0  0  0  0  0
   -2.8320   -2.8390    2.0530 H   0  0  0  0  0  0  0  0  0  0  0  0
   -4.6840   -1.3550    1.2760 H   0  0  0  0  0  0  0  0  0  0  0  0
   -4.7790   -1.4970   -1.0510 H   0  0  0  0  0  0  0  0  0  0  0  0
   -0.1240    1.0970    2.9640 H   0  0  0  0  0  0  0  0  0  0  0  0
  1  2  1  0  0  0  0
  1  6  1  0  0  0  0
  1 11  1  0  0  0  0
  1 35  1  0  0  0  0
  2  5  1  0  0  0  0
  2 13  1  0  0  0  0
  2 37  1  0  0  0  0
  3  4  1  0  0  0  0
  3  6  1  0  0  0  0
  3  7  1  0  0  0  0
  3 29  1  0  0  0  0
  4  5  1  0  0  0  0
  4  9  1  0  0  0  0
  4 75  1  0  0  0  0
  5 17  1  0  0  0  0
  5 76  1  0  0  0  0
  6 20  1  0  0  0  0
  6 77  1  0  0  0  0
  7  8  1  0  0  0  0
  7 17  1  0  0  0  0
  7 78  1  0  0  0  0
  8 24  1  0  0  0  0
  8 25  1  0  0  0  0
  8 30  1  0  0  0  0
  9 10  1  0  0  0  0
  9 25  1  0  0  0  0
  9 43  1  0  0  0  0
 11 12  1  0  0  0  0
 11 42  1  0  0  0  0
 11 79  1  0  0  0  0
 12 20  1  0  0  0  0
 12 28  1  0  0  0  0
 12 80  1  0  0  0  0
 13 14  1  0  0  0  0
 13 15  1  0  0  0  0
 13 28  1  0  0  0  0
 16 23  1  0  0  0  0
 16 24  1  0  0  0  0
 16 34  2  0  0  0  0
 17 18  1  0  0  0  0
 17 19  1  0  0  0  0
 20 21  1  0  0  0  0
 20 22  1  0  0  0  0
 23 33  2  0  0  0  0
 23 50  1  0  0  0  0
 25 26  1  0  0  0  0
 25 27  1  0  0  0  0
 28 49  1  0  0  0  0
 28 81  1  0  0  0  0
 29 39  1  0  0  0  0
 29 52  1  0  0  0  0
 29 82  1  0  0  0  0
 30 31  1  0  0  0  0
 30 32  1  0  0  0  0
 30 39  1  0  0  0  0
 33 46  1  0  0  0  0
 33 53  1  0  0  0  0
 35 36  1  0  0  0  0
 37 38  1  0  0  0  0
 39 40  1  0  0  0  0
 39 41  1  0  0  0  0
 42 55  1  0  0  0  0
 43 44  1  0  0  0  0
 43 45  1  0  0  0  0
 43 67  1  0  0  0  0
 46 47  1  0  0  0  0
 46 48  1  0  0  0  0
 49 59  1  0  0  0  0
 50 51  1  0  0  0  0
 50 71  2  0  0  0  0
 52 63  1  0  0  0  0
 53 54  1  0  0  0  0
 53 73  2  0  0  0  0
 55 56  1  0  0  0  0
 55 57  1  0  0  0  0
 55 58  1  0  0  0  0
 59 60  1  0  0  0  0
 59 61  1  0  0  0  0
 59 62  1  0  0  0  0
 63 64  1  0  0  0  0
 63 65  1  0  0  0  0
 63 66  1  0  0  0  0
 67 68  1  0  0  0  0
 67 69  1  0  0  0  0
 67 70  1  0  0  0  0
 71 72  1  0  0  0  0
 71 73  1  0  0  0  0
 73 74  1  0  0  0  0
M  CHG  1   9   1
M  END
>  <IDNUMBER>
AG-690/12868118

>  <NAME>
N-Deacetyllapaconitine

>  <ADD_INFO>
http://www.specs.net/enter.php?specsid=AG-690/12868118

>  <H_ACCEPTORS>
9

>  <H_DONORS>
3

>  <ROTATABLE_BONDS>
7

>  <LOGP>
1.92

>  <LOGS>
-3.79

>  <TPSA>
123.71

>  <PRICE>
N07

$$$$
AG-690/33063033
  MOE2011           3D

 64 68  0  0  1  0  0  0  0  0999 V2000
   -2.8320   -0.4480    0.1150 C   0  0  1  0  0  0  0  0  0  0  0  0
   -1.3690   -0.9770    0.2280 C   0  0  2  0  0  0  0  0  0  0  0  0
   -0.5550    0.2250    0.8150 C   0  0  3  0  0  0  0  0  0  0  0  0
    2.7790   -0.3560   -0.0840 C   0  0  1  0  0  0  0  0  0  0  0  0
   -2.9690    0.5550    1.2400 C   0  0  2  0  0  0  0  0  0  0  0  0
    3.3520    1.0020    0.3160 C   0  0  0  0  0  0  0  0  0  0  0  0
    1.3930   -0.1750   -0.8310 C   0  0  3  0  0  0  0  0  0  0  0  0
    0.4080    0.8580   -0.2160 C   0  0  3  0  0  0  0  0  0  0  0  0
   -3.0310    0.3700   -1.0500 O   0  0  0  0  0  0  0  0  0  0  0  0
   -3.9140    1.4260   -0.6510 C   0  0  0  0  0  0  0  0  0  0  0  0
   -3.9270    1.5110    0.7820 O   0  0  0  0  0  0  0  0  0  0  0  0
   -1.5970    1.2090    1.3840 C   0  0  0  0  0  0  0  0  0  0  0  0
   -1.5600    2.1860    0.8970 H   0  0  0  0  0  0  0  0  0  0  0  0
   -1.3920    1.3990    2.4450 H   0  0  0  0  0  0  0  0  0  0  0  0
   -0.8240   -1.4390   -1.1430 C   0  0  0  0  0  0  0  0  0  0  0  0
   -1.2420   -2.4200   -1.4040 H   0  0  0  0  0  0  0  0  0  0  0  0
   -1.1390   -0.7630   -1.9470 H   0  0  0  0  0  0  0  0  0  0  0  0
    2.5820    2.0930    0.4510 C   0  0  0  0  0  0  0  0  0  0  0  0
    3.0390    3.0330    0.7550 H   0  0  0  0  0  0  0  0  0  0  0  0
   -3.8730   -1.5870    0.0710 C   0  0  0  0  0  0  0  0  0  0  0  0
    1.1040    2.1470    0.2630 C   0  0  0  0  0  0  0  0  0  0  0  0
    0.6680    2.5070    1.2010 H   0  0  0  0  0  0  0  0  0  0  0  0
    0.9070    2.9330   -0.4780 H   0  0  0  0  0  0  0  0  0  0  0  0
    0.6980   -1.5170   -1.1770 C   0  0  0  0  0  0  0  0  0  0  0  0
    1.0000   -1.8220   -2.1870 H   0  0  0  0  0  0  0  0  0  0  0  0
    1.0210   -2.3310   -0.5270 H   0  0  0  0  0  0  0  0  0  0  0  0
    3.7470   -1.1240   -1.0490 C   0  0  0  0  0  0  0  0  0  0  0  0
    4.0660   -2.0680   -0.5880 H   0  0  0  0  0  0  0  0  0  0  0  0
    3.2390   -1.4260   -1.9720 H   0  0  0  0  0  0  0  0  0  0  0  0
    4.8370    1.1020    0.6160 C   0  0  0  0  0  0  0  0  0  0  0  0
    4.9960    0.8860    1.6800 H   0  0  0  0  0  0  0  0  0  0  0  0
    5.1610    2.1390    0.4540 H   0  0  0  0  0  0  0  0  0  0  0  0
   -4.0170   -2.2850   -0.9370 O   0  0  0  0  0  0  0  0  0  0  0  0
   -1.2670   -2.1430    1.2440 C   0  0  0  0  0  0  0  0  0  0  0  0
   -0.2260   -2.4370    1.4140 H   0  0  0  0  0  0  0  0  0  0  0  0
   -1.7960   -3.0350    0.8910 H   0  0  0  0  0  0  0  0  0  0  0  0
   -1.6830   -1.8650    2.2180 H   0  0  0  0  0  0  0  0  0  0  0  0
    4.9920   -0.3370   -1.4640 C   0  0  0  0  0  0  0  0  0  0  0  0
    4.7100    0.4860   -2.1310 H   0  0  0  0  0  0  0  0  0  0  0  0
    5.6500   -1.0050   -2.0340 H   0  0  0  0  0  0  0  0  0  0  0  0
    5.7280    0.2010   -0.2450 C   0  0  2  0  0  0  0  0  0  0  0  0
    2.6630   -1.1610    1.2330 C   0  0  0  0  0  0  0  0  0  0  0  0
    2.2550   -2.1630    1.0860 H   0  0  0  0  0  0  0  0  0  0  0  0
    2.0470   -0.6490    1.9770 H   0  0  0  0  0  0  0  0  0  0  0  0
    3.6470   -1.3020    1.6970 H   0  0  0  0  0  0  0  0  0  0  0  0
   -5.3330    1.1440   -1.1400 C   0  0  0  0  0  0  0  0  0  0  0  0
   -6.0100    1.9630   -0.8760 H   0  0  0  0  0  0  0  0  0  0  0  0
   -5.7430    0.2400   -0.6810 H   0  0  0  0  0  0  0  0  0  0  0  0
   -5.3550    0.9950   -2.2250 H   0  0  0  0  0  0  0  0  0  0  0  0
   -3.4160    2.7360   -1.2540 C   0  0  0  0  0  0  0  0  0  0  0  0
   -4.0070    3.5870   -0.9000 H   0  0  0  0  0  0  0  0  0  0  0  0
   -3.4520    2.7040   -2.3490 H   0  0  0  0  0  0  0  0  0  0  0  0
   -2.3740    2.9300   -0.9840 H   0  0  0  0  0  0  0  0  0  0  0  0
    6.1870   -0.8920    0.5540 O   0  0  0  0  0  0  0  0  0  0  0  0
    6.7720   -1.4350   -0.0010 H   0  0  0  0  0  0  0  0  0  0  0  0
   -4.7210   -1.8550    1.2890 C   0  0  0  0  0  0  0  0  0  0  0  0
   -4.0890   -2.1050    2.1440 H   0  0  0  0  0  0  0  0  0  0  0  0
   -5.3810   -2.7050    1.0920 H   0  0  0  0  0  0  0  0  0  0  0  0
   -5.3420   -0.9850    1.5130 H   0  0  0  0  0  0  0  0  0  0  0  0
    0.0470   -0.1130    1.6640 H   0  0  0  0  0  0  0  0  0  0  0  0
   -3.2900    0.1410    2.1990 H   0  0  0  0  0  0  0  0  0  0  0  0
    1.6540    0.2720   -1.8050 H   0  0  0  0  0  0  0  0  0  0  0  0
   -0.2410    1.1900   -1.0420 H   0  0  0  0  0  0  0  0  0  0  0  0
    6.6190    0.7580   -0.5570 H   0  0  0  0  0  0  0  0  0  0  0  0
  1  2  1  0  0  0  0
  1  5  1  0  0  0  0
  1  9  1  0  0  0  0
  1 20  1  0  0  0  0
  2  3  1  0  0  0  0
  2 15  1  0  0  0  0
  2 34  1  0  0  0  0
  3  8  1  0  0  0  0
  3 12  1  0  0  0  0
  3 60  1  0  0  0  0
  4  6  1  0  0  0  0
  4  7  1  0  0  0  0
  4 27  1  0  0  0  0
  4 42  1  0  0  0  0
  5 11  1  0  0  0  0
  5 12  1  0  0  0  0
  5 61  1  0  0  0  0
  6 18  2  0  0  0  0
  6 30  1  0  0  0  0
  7  8  1  0  0  0  0
  7 24  1  0  0  0  0
  7 62  1  0  0  0  0
  8 21  1  0  0  0  0
  8 63  1  0  0  0  0
  9 10  1  0  0  0  0
 10 11  1  0  0  0  0
 10 46  1  0  0  0  0
 10 50  1  0  0  0  0
 12 13  1  0  0  0  0
 12 14  1  0  0  0  0
 15 16  1  0  0  0  0
 15 17  1  0  0  0  0
 15 24  1  0  0  0  0
 18 19  1  0  0  0  0
 18 21  1  0  0  0  0
 20 33  2  0  0  0  0
 20 56  1  0  0  0  0
 21 22  1  0  0  0  0
 21 23  1  0  0  0  0
 24 25  1  0  0  0  0
 24 26  1  0  0  0  0
 27 28  1  0  0  0  0
 27 29  1  0  0  0  0
 27 38  1  0  0  0  0
 30 31  1  0  0  0  0
 30 32  1  0  0  0  0
 30 41  1  0  0  0  0
 34 35  1  0  0  0  0
 34 36  1  0  0  0  0
 34 37  1  0  0  0  0
 38 39  1  0  0  0  0
 38 40  1  0  0  0  0
 38 41  1  0  0  0  0
 41 54  1  0  0  0  0
 41 64  1  0  0  0  0
 42 43  1  0  0  0  0
 42 44  1  0  0  0  0
 42 45  1  0  0  0  0
 46 47  1  0  0  0  0
 46 48  1  0  0  0  0
 46 49  1  0  0  0  0
 50 51  1  0  0  0  0
 50 52  1  0  0  0  0
 50 53  1  0  0  0  0
 54 55  1  0  0  0  0
 56 57  1  0  0  0  0
 56 58  1  0  0  0  0
 56 59  1  0  0  0  0
M  END
>  <IDNUMBER>
AG-690/33063033

>  <NAME>
Derivative of 3,14,16,17-Tetrahydroxypregn-5-en-20-one

>  <ADD_INFO>
http://www.specs.net/enter.php?specsid=AG-690/33063033

>  <H_ACCEPTORS>
4

>  <H_DONORS>
1

>  <ROTATABLE_BONDS>
1

>  <LOGP>
4.54

>  <LOGS>
-5.4000001

>  <TPSA>
55.759998

>  <PRICE>
N05

$$$$
AG-690/33063037
  MOE2011           3D

 63 67  0  0  1  0  0  0  0  0999 V2000
   -0.4510   -0.4850   -0.7890 C   0  0  3  0  0  0  0  0  0  0  0  0
   -4.3960    1.0090    0.5850 C   0  0  3  0  0  0  0  0  0  0  0  0
    0.1310   -1.6020    0.0840 C   0  0  0  0  0  0  0  0  0  0  0  0
   -2.0250   -0.4470   -0.6880 C   0  0  3  0  0  0  0  0  0  0  0  0
   -4.0020   -0.4440    0.9580 C   0  0  3  0  0  0  0  0  0  0  0  0
   -2.4950   -0.6860    0.7660 C   0  0  3  0  0  0  0  0  0  0  0  0
   -0.6040   -2.3230    0.9510 C   0  0  0  0  0  0  0  0  0  0  0  0
   -0.1310   -3.1000    1.5480 H   0  0  0  0  0  0  0  0  0  0  0  0
   -5.7410    0.8160   -0.1010 C   0  0  0  0  0  0  0  0  0  0  0  0
   -3.3880    1.7150   -0.3370 C   0  0  0  0  0  0  0  0  0  0  0  0
   -3.8790    2.5240   -0.8920 H   0  0  0  0  0  0  0  0  0  0  0  0
   -2.6120    2.1990    0.2690 H   0  0  0  0  0  0  0  0  0  0  0  0
   -2.0610   -2.0890    1.2150 C   0  0  0  0  0  0  0  0  0  0  0  0
   -2.6370   -2.8720    0.7090 H   0  0  0  0  0  0  0  0  0  0  0  0
   -2.2480   -2.1930    2.2900 H   0  0  0  0  0  0  0  0  0  0  0  0
   -2.7030    0.7820   -1.3340 C   0  0  0  0  0  0  0  0  0  0  0  0
   -1.9970    1.3640   -1.9350 H   0  0  0  0  0  0  0  0  0  0  0  0
   -3.4610    0.4260   -2.0440 H   0  0  0  0  0  0  0  0  0  0  0  0
    0.2020    0.8570   -0.3470 C   0  0  0  0  0  0  0  0  0  0  0  0
    0.3670    1.4930   -1.2270 H   0  0  0  0  0  0  0  0  0  0  0  0
   -0.4720    1.4260    0.3020 H   0  0  0  0  0  0  0  0  0  0  0  0
   -4.9110   -1.3560    0.1160 C   0  0  0  0  0  0  0  0  0  0  0  0
   -4.4990   -1.5460   -0.8800 H   0  0  0  0  0  0  0  0  0  0  0  0
   -5.0620   -2.3300    0.5930 H   0  0  0  0  0  0  0  0  0  0  0  0
    1.6320   -1.7870    0.0140 C   0  0  0  0  0  0  0  0  0  0  0  0
    1.8810   -2.3960   -0.8640 H   0  0  0  0  0  0  0  0  0  0  0  0
    1.9870   -2.3620    0.8790 H   0  0  0  0  0  0  0  0  0  0  0  0
   -6.2210   -0.6040   -0.0280 C   0  0  0  0  0  0  0  0  0  0  0  0
   -6.8550   -0.7230    0.8560 H   0  0  0  0  0  0  0  0  0  0  0  0
   -6.7610   -0.8910   -0.9330 H   0  0  0  0  0  0  0  0  0  0  0  0
    4.6540    0.2570    0.3320 C   0  0  3  0  0  0  0  0  0  0  0  0
    5.4980    0.5280    1.4500 O   0  0  0  0  0  0  0  0  0  0  0  0
    3.5590   -0.5560    0.7520 O   0  0  0  0  0  0  0  0  0  0  0  0
   -6.3950    1.7210   -0.6060 O   0  0  0  0  0  0  0  0  0  0  0  0
    2.3930   -0.4490   -0.0730 C   0  0  3  0  0  0  0  0  0  0  0  0
    1.5310    0.7210    0.4110 C   0  0  0  0  0  0  0  0  0  0  0  0
    1.3260    0.5930    1.4830 H   0  0  0  0  0  0  0  0  0  0  0  0
    2.0840    1.6650    0.3440 H   0  0  0  0  0  0  0  0  0  0  0  0
   -0.1010   -0.7690   -2.2750 C   0  0  0  0  0  0  0  0  0  0  0  0
   -0.5530   -0.0310   -2.9460 H   0  0  0  0  0  0  0  0  0  0  0  0
   -0.4620   -1.7570   -2.5830 H   0  0  0  0  0  0  0  0  0  0  0  0
    0.9750   -0.7440   -2.4700 H   0  0  0  0  0  0  0  0  0  0  0  0
   -4.6260    1.8550    1.8450 C   0  0  0  0  0  0  0  0  0  0  0  0
   -3.7150    1.9200    2.4490 H   0  0  0  0  0  0  0  0  0  0  0  0
   -5.4190    1.4310    2.4730 H   0  0  0  0  0  0  0  0  0  0  0  0
   -4.9340    2.8740    1.5850 H   0  0  0  0  0  0  0  0  0  0  0  0
    6.5040    1.4990    1.1590 C   0  0  0  0  0  0  0  0  0  0  0  0
    6.0940    2.5000    1.3370 H   0  0  0  0  0  0  0  0  0  0  0  0
    7.3090    1.3480    1.8860 H   0  0  0  0  0  0  0  0  0  0  0  0
    5.4660   -0.4880   -0.7340 C   0  0  0  0  0  0  0  0  0  0  0  0
    5.4480   -1.5690   -0.5460 H   0  0  0  0  0  0  0  0  0  0  0  0
    4.9840   -0.3550   -1.7100 H   0  0  0  0  0  0  0  0  0  0  0  0
    7.0590    1.3940   -0.2610 C   0  0  0  0  0  0  0  0  0  0  0  0
    6.5020    2.0780   -0.9150 H   0  0  0  0  0  0  0  0  0  0  0  0
    8.1010    1.7290   -0.2850 H   0  0  0  0  0  0  0  0  0  0  0  0
    6.9200   -0.0210   -0.7990 C   0  0  0  0  0  0  0  0  0  0  0  0
    7.5420   -0.6950   -0.1980 H   0  0  0  0  0  0  0  0  0  0  0  0
    7.2900   -0.0830   -1.8280 H   0  0  0  0  0  0  0  0  0  0  0  0
   -2.3720   -1.3100   -1.2770 H   0  0  0  0  0  0  0  0  0  0  0  0
   -4.2480   -0.6280    2.0140 H   0  0  0  0  0  0  0  0  0  0  0  0
   -1.9800    0.0340    1.4190 H   0  0  0  0  0  0  0  0  0  0  0  0
    4.2820    1.2140   -0.0540 H   0  0  0  0  0  0  0  0  0  0  0  0
    2.6930   -0.2820   -1.1140 H   0  0  0  0  0  0  0  0  0  0  0  0
  1  3  1  0  0  0  0
  1  4  1  0  0  0  0
  1 19  1  0  0  0  0
  1 39  1  0  0  0  0
  2  5  1  0  0  0  0
  2  9  1  0  0  0  0
  2 10  1  0  0  0  0
  2 43  1  0  0  0  0
  3  7  2  0  0  0  0
  3 25  1  0  0  0  0
  4  6  1  0  0  0  0
  4 16  1  0  0  0  0
  4 59  1  0  0  0  0
  5  6  1  0  0  0  0
  5 22  1  0  0  0  0
  5 60  1  0  0  0  0
  6 13  1  0  0  0  0
  6 61  1  0  0  0  0
  7  8  1  0  0  0  0
  7 13  1  0  0  0  0
  9 28  1  0  0  0  0
  9 34  2  0  0  0  0
 10 11  1  0  0  0  0
 10 12  1  0  0  0  0
 10 16  1  0  0  0  0
 13 14  1  0  0  0  0
 13 15  1  0  0  0  0
 16 17  1  0  0  0  0
 16 18  1  0  0  0  0
 19 20  1  0  0  0  0
 19 21  1  0  0  0  0
 19 36  1  0  0  0  0
 22 23  1  0  0  0  0
 22 24  1  0  0  0  0
 22 28  1  0  0  0  0
 25 26  1  0  0  0  0
 25 27  1  0  0  0  0
 25 35  1  0  0  0  0
 28 29  1  0  0  0  0
 28 30  1  0  0  0  0
 31 32  1  0  0  0  0
 31 33  1  0  0  0  0
 31 50  1  0  0  0  0
 31 62  1  0  0  0  0
 32 47  1  0  0  0  0
 33 35  1  0  0  0  0
 35 36  1  0  0  0  0
 35 63  1  0  0  0  0
 36 37  1  0  0  0  0
 36 38  1  0  0  0  0
 39 40  1  0  0  0  0
 39 41  1  0  0  0  0
 39 42  1  0  0  0  0
 43 44  1  0  0  0  0
 43 45  1  0  0  0  0
 43 46  1  0  0  0  0
 47 48  1  0  0  0  0
 47 49  1  0  0  0  0
 47 53  1  0  0  0  0
 50 51  1  0  0  0  0
 50 52  1  0  0  0  0
 50 56  1  0  0  0  0
 53 54  1  0  0  0  0
 53 55  1  0  0  0  0
 53 56  1  0  0  0  0
 56 57  1  0  0  0  0
 56 58  1  0  0  0  0
M  END
>  <IDNUMBER>
AG-690/33063037

>  <NAME>
10,13-dimethyl-3-(tetrahydro-2H-pyran-2-yloxy)-1,2,3,4,7,8,9,10,11,12,13,14,15,16-tetradecahydro-17H-cyclopenta[a]phenanthren-17-one

>  <ADD_INFO>
http://www.specs.net/enter.php?specsid=AG-690/33063037

>  <H_ACCEPTORS>
3

>  <H_DONORS>
0

>  <ROTATABLE_BONDS>
2

>  <LOGP>
4.71

>  <LOGS>
-5.9299998

>  <TPSA>
35.529999

>  <PRICE>
N05

$$$$
AG-777/25006384
  MOE2011           3D

 87 92  0  0  1  0  0  0  0  0999 V2000
    2.7200    1.0070   -0.7220 C   0  0  3  0  0  0  0  0  0  0  0  0
    2.1690    2.2220   -1.3030 O   0  0  0  0  0  0  0  0  0  0  0  0
    1.8560    1.0140   -1.9780 C   0  0  3  0  0  0  0  0  0  0  0  0
    2.0920    0.6510    0.6370 C   0  0  1  0  0  0  0  0  0  0  0  0
   -1.9710   -1.1570   -0.1600 C   0  0  1  0  0  0  0  0  0  0  0  0
   -0.2350    0.8140   -0.5600 C   0  0  3  0  0  0  0  0  0  0  0  0
    0.6350    0.0460    0.4610 C   0  0  3  0  0  0  0  0  0  0  0  0
   -1.7260    0.3690   -0.4310 C   0  0  3  0  0  0  0  0  0  0  0  0
    0.3880    0.7240   -1.9710 C   0  0  0  0  0  0  0  0  0  0  0  0
   -0.0850    1.4530   -2.6380 H   0  0  0  0  0  0  0  0  0  0  0  0
    0.2310   -0.2540   -2.4290 H   0  0  0  0  0  0  0  0  0  0  0  0
   -3.1210   -1.5750   -1.1490 C   0  0  2  0  0  0  0  0  0  0  0  0
    7.2090   -0.7550    0.0600 C   0  0  0  0  0  0  0  0  0  0  0  0
    4.2270    1.0910   -0.8210 C   0  0  0  0  0  0  0  0  0  0  0  0
    4.5450    1.0670   -1.8720 H   0  0  0  0  0  0  0  0  0  0  0  0
    4.5580    2.0690   -0.4450 H   0  0  0  0  0  0  0  0  0  0  0  0
   -0.7000   -1.9720   -0.5130 C   0  0  0  0  0  0  0  0  0  0  0  0
   -0.8390   -3.0260   -0.2360 H   0  0  0  0  0  0  0  0  0  0  0  0
   -0.5620   -1.9970   -1.6000 H   0  0  0  0  0  0  0  0  0  0  0  0
    2.9880   -0.3610    1.4190 C   0  0  0  0  0  0  0  0  0  0  0  0
    2.6510   -0.4360    2.4600 H   0  0  0  0  0  0  0  0  0  0  0  0
    2.9020   -1.3680    1.0010 H   0  0  0  0  0  0  0  0  0  0  0  0
    0.5990   -1.4660    0.1280 C   0  0  0  0  0  0  0  0  0  0  0  0
    1.4200   -1.7320   -0.5490 H   0  0  0  0  0  0  0  0  0  0  0  0
    0.7630   -2.0310    1.0550 H   0  0  0  0  0  0  0  0  0  0  0  0
   -2.6090    0.7520   -1.6270 C   0  0  0  0  0  0  0  0  0  0  0  0
   -3.5110    1.2580   -1.2700 H   0  0  0  0  0  0  0  0  0  0  0  0
   -2.1510    1.4520   -2.3280 H   0  0  0  0  0  0  0  0  0  0  0  0
   -2.9760   -0.5580   -2.2950 C   0  0  0  0  0  0  0  0  0  0  0  0
   -2.1630   -0.8670   -2.9630 H   0  0  0  0  0  0  0  0  0  0  0  0
   -3.8740   -0.4680   -2.9140 H   0  0  0  0  0  0  0  0  0  0  0  0
    6.3640    0.2940   -0.0980 O   0  0  0  0  0  0  0  0  0  0  0  0
    4.9560   -0.0090   -0.0620 C   0  0  3  0  0  0  0  0  0  0  0  0
    6.8870   -1.9220    0.2180 O   0  0  0  0  0  0  0  0  0  0  0  0
    8.6220   -0.2960    0.0190 C   0  0  0  0  0  0  0  0  0  0  0  0
   -4.6100   -1.7190   -0.6900 C   0  0  3  0  0  0  0  0  0  0  0  0
    4.4760   -0.0390    1.3860 C   0  0  0  0  0  0  0  0  0  0  0  0
    5.0280   -0.8010    1.9500 H   0  0  0  0  0  0  0  0  0  0  0  0
    4.6950    0.9110    1.8880 H   0  0  0  0  0  0  0  0  0  0  0  0
    1.9960    1.9410    1.5000 C   0  0  0  0  0  0  0  0  0  0  0  0
    1.6220    1.7160    2.5050 H   0  0  0  0  0  0  0  0  0  0  0  0
    1.3240    2.6850    1.0620 H   0  0  0  0  0  0  0  0  0  0  0  0
    2.9720    2.4260    1.6080 H   0  0  0  0  0  0  0  0  0  0  0  0
   -2.2800   -1.4280    1.3240 C   0  0  0  0  0  0  0  0  0  0  0  0
   -2.4000   -2.5010    1.5100 H   0  0  0  0  0  0  0  0  0  0  0  0
   -3.1790   -0.9160    1.6710 H   0  0  0  0  0  0  0  0  0  0  0  0
   -1.4740   -1.0950    1.9840 H   0  0  0  0  0  0  0  0  0  0  0  0
   -6.2570    0.2320   -0.8750 C   0  0  0  0  0  0  0  0  0  0  0  0
   -5.8050    0.4030   -1.8590 H   0  0  0  0  0  0  0  0  0  0  0  0
   -7.1290   -0.4080   -1.0540 H   0  0  0  0  0  0  0  0  0  0  0  0
   -5.2550   -0.5050    0.0180 C   0  0  0  0  0  0  0  0  0  0  0  0
   -5.7920   -0.8550    0.9060 H   0  0  0  0  0  0  0  0  0  0  0  0
   -4.5020    0.1990    0.3750 H   0  0  0  0  0  0  0  0  0  0  0  0
    8.9710    1.0530   -0.1410 C   0  0  0  0  0  0  0  0  0  0  0  0
    8.2100    1.8220   -0.2440 H   0  0  0  0  0  0  0  0  0  0  0  0
    9.6330   -1.2580    0.1490 C   0  0  0  0  0  0  0  0  0  0  0  0
    9.3810   -2.3100    0.2750 H   0  0  0  0  0  0  0  0  0  0  0  0
   -4.8370   -2.9970    0.1340 C   0  0  0  0  0  0  0  0  0  0  0  0
   -5.9060   -3.2400    0.1560 H   0  0  0  0  0  0  0  0  0  0  0  0
   -4.5170   -2.8930    1.1730 H   0  0  0  0  0  0  0  0  0  0  0  0
   -4.3170   -3.8540   -0.3060 H   0  0  0  0  0  0  0  0  0  0  0  0
   -6.7080    1.6010   -0.3460 C   0  0  0  0  0  0  0  0  0  0  0  0
   -7.3440    2.0390   -1.1270 H   0  0  0  0  0  0  0  0  0  0  0  0
   -5.8360    2.2630   -0.2750 H   0  0  0  0  0  0  0  0  0  0  0  0
   -7.5050    1.6620    0.9720 C   0  0  0  0  0  0  0  0  0  0  0  0
   -8.0060    2.6400    0.9770 H   0  0  0  0  0  0  0  0  0  0  0  0
   -8.6000    0.6020    1.0670 C   0  0  0  0  0  0  0  0  0  0  0  0
   -8.1850   -0.4070    1.1610 H   0  0  0  0  0  0  0  0  0  0  0  0
   -9.2440    0.6270    0.1820 H   0  0  0  0  0  0  0  0  0  0  0  0
   -9.2330    0.7810    1.9430 H   0  0  0  0  0  0  0  0  0  0  0  0
   -6.6150    1.6440    2.2160 C   0  0  0  0  0  0  0  0  0  0  0  0
   -6.1530    0.6700    2.3890 H   0  0  0  0  0  0  0  0  0  0  0  0
   -7.2050    1.8840    3.1080 H   0  0  0  0  0  0  0  0  0  0  0  0
   -5.8180    2.3920    2.1380 H   0  0  0  0  0  0  0  0  0  0  0  0
   10.3160    1.4290   -0.1700 C   0  0  0  0  0  0  0  0  0  0  0  0
   10.5840    2.4760   -0.2940 H   0  0  0  0  0  0  0  0  0  0  0  0
   10.9760   -0.8770    0.1190 C   0  0  0  0  0  0  0  0  0  0  0  0
   11.7560   -1.6280    0.2200 H   0  0  0  0  0  0  0  0  0  0  0  0
   11.3160    0.4660   -0.0410 C   0  0  0  0  0  0  0  0  0  0  0  0
   12.3610    0.7620   -0.0640 H   0  0  0  0  0  0  0  0  0  0  0  0
    2.3160    0.8350   -2.9410 H   0  0  0  0  0  0  0  0  0  0  0  0
   -0.2290    1.8790   -0.2890 H   0  0  0  0  0  0  0  0  0  0  0  0
    0.1560    0.1580    1.4420 H   0  0  0  0  0  0  0  0  0  0  0  0
   -2.1190    0.9270    0.4320 H   0  0  0  0  0  0  0  0  0  0  0  0
   -2.8710   -2.5580   -1.5760 H   0  0  0  0  0  0  0  0  0  0  0  0
    4.7610   -0.9690   -0.5570 H   0  0  0  0  0  0  0  0  0  0  0  0
   -5.1800   -1.9000   -1.6140 H   0  0  0  0  0  0  0  0  0  0  0  0
  1  2  1  0  0  0  0
  1  3  1  0  0  0  0
  1  4  1  0  0  0  0
  1 14  1  0  0  0  0
  2  3  1  0  0  0  0
  3  9  1  0  0  0  0
  3 81  1  0  0  0  0
  4  7  1  0  0  0  0
  4 20  1  0  0  0  0
  4 40  1  0  0  0  0
  5  8  1  0  0  0  0
  5 12  1  0  0  0  0
  5 17  1  0  0  0  0
  5 44  1  0  0  0  0
  6  7  1  0  0  0  0
  6  8  1  0  0  0  0
  6  9  1  0  0  0  0
  6 82  1  0  0  0  0
  7 23  1  0  0  0  0
  7 83  1  0  0  0  0
  8 26  1  0  0  0  0
  8 84  1  0  0  0  0
  9 10  1  0  0  0  0
  9 11  1  0  0  0  0
 12 29  1  0  0  0  0
 12 36  1  0  0  0  0
 12 85  1  0  0  0  0
 13 32  1  0  0  0  0
 13 34  2  0  0  0  0
 13 35  1  0  0  0  0
 14 15  1  0  0  0  0
 14 16  1  0  0  0  0
 14 33  1  0  0  0  0
 17 18  1  0  0  0  0
 17 19  1  0  0  0  0
 17 23  1  0  0  0  0
 20 21  1  0  0  0  0
 20 22  1  0  0  0  0
 20 37  1  0  0  0  0
 23 24  1  0  0  0  0
 23 25  1  0  0  0  0
 26 27  1  0  0  0  0
 26 28  1  0  0  0  0
 26 29  1  0  0  0  0
 29 30  1  0  0  0  0
 29 31  1  0  0  0  0
 32 33  1  0  0  0  0
 33 37  1  0  0  0  0
 33 86  1  0  0  0  0
 35 54  2  0  0  0  0
 35 56  1  0  0  0  0
 36 51  1  0  0  0  0
 36 58  1  0  0  0  0
 36 87  1  0  0  0  0
 37 38  1  0  0  0  0
 37 39  1  0  0  0  0
 40 41  1  0  0  0  0
 40 42  1  0  0  0  0
 40 43  1  0  0  0  0
 44 45  1  0  0  0  0
 44 46  1  0  0  0  0
 44 47  1  0  0  0  0
 48 49  1  0  0  0  0
 48 50  1  0  0  0  0
 48 51  1  0  0  0  0
 48 62  1  0  0  0  0
 51 52  1  0  0  0  0
 51 53  1  0  0  0  0
 54 55  1  0  0  0  0
 54 75  1  0  0  0  0
 56 57  1  0  0  0  0
 56 77  2  0  0  0  0
 58 59  1  0  0  0  0
 58 60  1  0  0  0  0
 58 61  1  0  0  0  0
 62 63  1  0  0  0  0
 62 64  1  0  0  0  0
 62 65  1  0  0  0  0
 65 66  1  0  0  0  0
 65 67  1  0  0  0  0
 65 71  1  0  0  0  0
 67 68  1  0  0  0  0
 67 69  1  0  0  0  0
 67 70  1  0  0  0  0
 71 72  1  0  0  0  0
 71 73  1  0  0  0  0
 71 74  1  0  0  0  0
 75 76  1  0  0  0  0
 75 79  2  0  0  0  0
 77 78  1  0  0  0  0
 77 79  1  0  0  0  0
 79 80  1  0  0  0  0
M  END
>  <IDNUMBER>
AG-777/25006384

>  <NAME>
Cholesterol, derivative of

>  <ADD_INFO>
http://www.specs.net/enter.php?specsid=AG-777/25006384

>  <H_ACCEPTORS>
3

>  <H_DONORS>
0

>  <ROTATABLE_BONDS>
8

>  <LOGP>
9.8000002

>  <LOGS>
-11.27

>  <TPSA>
38.830002

>  <PRICE>
N05

$$$$
AH-034/11107027
  MOE2011           3D

 40 42  0  0  1  0  0  0  0  0999 V2000
   -1.1500    0.2480   -0.9360 C   0  0  3  0  0  0  0  0  0  0  0  0
   -2.5560   -0.2550   -1.3360 C   0  0  3  0  0  0  0  0  0  0  0  0
   -3.6420    0.4240   -0.5210 C   0  0  3  0  0  0  0  0  0  0  0  0
   -1.1160    0.9010    0.3390 O   0  0  0  0  0  0  0  0  0  0  0  0
   -3.4140    0.2650    0.9830 C   0  0  3  0  0  0  0  0  0  0  0  0
   -1.9260    0.3420    1.3800 C   0  0  3  0  0  0  0  0  0  0  0  0
    3.7760   -0.5620   -0.1370 C   0  0  0  0  0  0  0  0  0  0  0  0
    5.1480   -0.5480    0.1830 O   0  0  0  0  0  0  0  0  0  0  0  0
   -0.2490   -0.8660   -1.0340 O   0  0  0  0  0  0  0  0  0  0  0  0
    1.0720   -0.6560   -0.7500 C   0  0  0  0  0  0  0  0  0  0  0  0
    3.1370   -1.7970   -0.1520 C   0  0  0  0  0  0  0  0  0  0  0  0
    3.6730   -2.7110    0.0750 H   0  0  0  0  0  0  0  0  0  0  0  0
    3.0950    0.6230   -0.4220 C   0  0  0  0  0  0  0  0  0  0  0  0
    5.8640    0.6400    0.2270 C   0  0  0  0  0  0  0  0  0  0  0  0
    1.7870   -1.8260   -0.4630 C   0  0  0  0  0  0  0  0  0  0  0  0
    3.8280    1.8780   -0.3870 C   0  0  0  0  0  0  0  0  0  0  0  0
    3.3070    2.8030   -0.6110 H   0  0  0  0  0  0  0  0  0  0  0  0
    1.7310    0.5740   -0.7320 C   0  0  0  0  0  0  0  0  0  0  0  0
    1.2030    1.4960   -0.9520 H   0  0  0  0  0  0  0  0  0  0  0  0
    5.1280    1.8780   -0.0810 C   0  0  0  0  0  0  0  0  0  0  0  0
    5.7010    2.7970   -0.0460 H   0  0  0  0  0  0  0  0  0  0  0  0
    7.0560    0.6750    0.5100 O   0  0  0  0  0  0  0  0  0  0  0  0
   -2.7920    0.0350   -2.7250 O   0  0  0  0  0  0  0  0  0  0  0  0
   -3.1160    0.9610   -2.7370 H   0  0  0  0  0  0  0  0  0  0  0  0
   -3.6520    1.8200   -0.8790 O   0  0  0  0  0  0  0  0  0  0  0  0
   -3.8500    2.2880   -0.0380 H   0  0  0  0  0  0  0  0  0  0  0  0
   -4.1280    1.3480    1.6130 O   0  0  0  0  0  0  0  0  0  0  0  0
   -5.0650    1.0830    1.6690 H   0  0  0  0  0  0  0  0  0  0  0  0
    1.1340   -3.0300   -0.4660 O   0  0  0  0  0  0  0  0  0  0  0  0
    0.2120   -2.8090   -0.7110 H   0  0  0  0  0  0  0  0  0  0  0  0
   -1.3630   -0.9910    1.9000 C   0  0  0  0  0  0  0  0  0  0  0  0
   -1.7670   -1.1950    2.8970 H   0  0  0  0  0  0  0  0  0  0  0  0
   -0.2710   -0.9510    1.9650 H   0  0  0  0  0  0  0  0  0  0  0  0
   -1.7260   -2.0870    1.0670 O   0  0  0  0  0  0  0  0  0  0  0  0
   -1.2970   -2.8750    1.4490 H   0  0  0  0  0  0  0  0  0  0  0  0
   -0.8360    0.9920   -1.6790 H   0  0  0  0  0  0  0  0  0  0  0  0
   -2.6250   -1.3430   -1.2330 H   0  0  0  0  0  0  0  0  0  0  0  0
   -4.6340    0.0490   -0.7960 H   0  0  0  0  0  0  0  0  0  0  0  0
   -3.8570   -0.6670    1.3530 H   0  0  0  0  0  0  0  0  0  0  0  0
   -1.8200    1.0510    2.2100 H   0  0  0  0  0  0  0  0  0  0  0  0
  1  2  1  0  0  0  0
  1  4  1  0  0  0  0
  1  9  1  0  0  0  0
  1 36  1  0  0  0  0
  2  3  1  0  0  0  0
  2 23  1  0  0  0  0
  2 37  1  0  0  0  0
  3  5  1  0  0  0  0
  3 25  1  0  0  0  0
  3 38  1  0  0  0  0
  4  6  1  0  0  0  0
  5  6  1  0  0  0  0
  5 27  1  0  0  0  0
  5 39  1  0  0  0  0
  6 31  1  0  0  0  0
  6 40  1  0  0  0  0
  7  8  1  0  0  0  0
  7 11  2  0  0  0  0
  7 13  1  0  0  0  0
  8 14  1  0  0  0  0
  9 10  1  0  0  0  0
 10 15  2  0  0  0  0
 10 18  1  0  0  0  0
 11 12  1  0  0  0  0
 11 15  1  0  0  0  0
 13 16  1  0  0  0  0
 13 18  2  0  0  0  0
 14 20  1  0  0  0  0
 14 22  2  0  0  0  0
 15 29  1  0  0  0  0
 16 17  1  0  0  0  0
 16 20  2  0  0  0  0
 18 19  1  0  0  0  0
 20 21  1  0  0  0  0
 23 24  1  0  0  0  0
 25 26  1  0  0  0  0
 27 28  1  0  0  0  0
 29 30  1  0  0  0  0
 31 32  1  0  0  0  0
 31 33  1  0  0  0  0
 31 34  1  0  0  0  0
 34 35  1  0  0  0  0
M  END
>  <IDNUMBER>
AH-034/11107027

>  <NAME>
Aesculin (Esculetin; Cichorigenin; Esculetol)

>  <ADD_INFO>
http://www.specs.net/enter.php?specsid=AH-034/11107027

>  <H_ACCEPTORS>
6

>  <H_DONORS>
5

>  <ROTATABLE_BONDS>
3

>  <LOGP>
-1.71

>  <LOGS>
-0.22

>  <TPSA>
145.91

>  <PRICE>
N07

>  <SALTDATA>
1.5 H2O

$$$$
AH-034/21082028
  MOE2011           3D

 39 41  0  0  1  0  0  0  0  0999 V2000
    1.0190   -0.3480   -0.0160 C   0  0  0  0  0  0  0  0  0  0  0  0
   -1.0510   -1.6230    0.3810 C   0  0  3  0  0  0  0  0  0  0  0  0
   -0.4710   -0.3600   -0.2610 C   0  0  1  0  0  0  0  0  0  0  0  0
    1.6840   -1.5820    0.1420 C   0  0  0  0  0  0  0  0  0  0  0  0
   -0.3900   -2.8120   -0.0770 O   0  0  0  0  0  0  0  0  0  0  0  0
    0.9630   -2.8780    0.0010 C   0  0  0  0  0  0  0  0  0  0  0  0
    1.7910    0.8220   -0.0180 C   0  0  0  0  0  0  0  0  0  0  0  0
   -1.1370    0.7680    0.3280 O   0  0  0  0  0  0  0  0  0  0  0  0
   -2.5540   -1.7090    0.0770 C   0  0  3  0  0  0  0  0  0  0  0  0
    3.1740    0.7680    0.1770 C   0  0  0  0  0  0  0  0  0  0  0  0
   -3.2440   -0.4310    0.5690 C   0  0  1  0  0  0  0  0  0  0  0  0
   -2.5270    0.8050   -0.0120 C   0  0  3  0  0  0  0  0  0  0  0  0
    3.0670   -1.6290    0.3790 C   0  0  0  0  0  0  0  0  0  0  0  0
    3.5780   -2.5790    0.5210 H   0  0  0  0  0  0  0  0  0  0  0  0
    3.7960   -0.4510    0.4170 C   0  0  0  0  0  0  0  0  0  0  0  0
    1.5670   -3.9400   -0.0760 O   0  0  0  0  0  0  0  0  0  0  0  0
    1.2080    2.0400   -0.2330 O   0  0  0  0  0  0  0  0  0  0  0  0
    1.8850    2.7120   -0.0350 H   0  0  0  0  0  0  0  0  0  0  0  0
   -2.7620   -1.8320   -1.3360 O   0  0  0  0  0  0  0  0  0  0  0  0
   -3.7020   -1.6210   -1.4970 H   0  0  0  0  0  0  0  0  0  0  0  0
   -4.6210   -0.4190    0.1690 O   0  0  0  0  0  0  0  0  0  0  0  0
   -5.0700   -1.1430    0.6480 H   0  0  0  0  0  0  0  0  0  0  0  0
    3.9110    1.9270    0.1730 O   0  0  0  0  0  0  0  0  0  0  0  0
    5.1330   -0.5200    0.6790 O   0  0  0  0  0  0  0  0  0  0  0  0
    5.4470    0.3990    0.7650 H   0  0  0  0  0  0  0  0  0  0  0  0
   -3.1570    2.0950    0.5250 C   0  0  0  0  0  0  0  0  0  0  0  0
   -2.6170    2.9710    0.1500 H   0  0  0  0  0  0  0  0  0  0  0  0
   -3.1010    2.1320    1.6190 H   0  0  0  0  0  0  0  0  0  0  0  0
   -4.5240    2.2080    0.1340 O   0  0  0  0  0  0  0  0  0  0  0  0
   -4.8870    1.2920    0.1080 H   0  0  0  0  0  0  0  0  0  0  0  0
    4.3920    2.1940   -1.1500 C   0  0  0  0  0  0  0  0  0  0  0  0
    4.9540    3.1320   -1.1160 H   0  0  0  0  0  0  0  0  0  0  0  0
    3.5660    2.3180   -1.8580 H   0  0  0  0  0  0  0  0  0  0  0  0
    5.0700    1.4040   -1.4910 H   0  0  0  0  0  0  0  0  0  0  0  0
   -0.6110   -0.3510   -1.3510 H   0  0  0  0  0  0  0  0  0  0  0  0
   -0.9380   -1.5840    1.4750 H   0  0  0  0  0  0  0  0  0  0  0  0
   -2.9990   -2.6000    0.5330 H   0  0  0  0  0  0  0  0  0  0  0  0
   -3.2040   -0.3970    1.6650 H   0  0  0  0  0  0  0  0  0  0  0  0
   -2.6390    0.8220   -1.1050 H   0  0  0  0  0  0  0  0  0  0  0  0
  1  3  1  0  0  0  0
  1  4  2  0  0  0  0
  1  7  1  0  0  0  0
  2  3  1  0  0  0  0
  2  5  1  0  0  0  0
  2  9  1  0  0  0  0
  2 36  1  0  0  0  0
  3  8  1  0  0  0  0
  3 35  1  0  0  0  0
  4  6  1  0  0  0  0
  4 13  1  0  0  0  0
  5  6  1  0  0  0  0
  6 16  2  0  0  0  0
  7 10  2  0  0  0  0
  7 17  1  0  0  0  0
  8 12  1  0  0  0  0
  9 11  1  0  0  0  0
  9 19  1  0  0  0  0
  9 37  1  0  0  0  0
 10 15  1  0  0  0  0
 10 23  1  0  0  0  0
 11 12  1  0  0  0  0
 11 21  1  0  0  0  0
 11 38  1  0  0  0  0
 12 26  1  0  0  0  0
 12 39  1  0  0  0  0
 13 14  1  0  0  0  0
 13 15  2  0  0  0  0
 15 24  1  0  0  0  0
 17 18  1  0  0  0  0
 19 20  1  0  0  0  0
 21 22  1  0  0  0  0
 23 31  1  0  0  0  0
 24 25  1  0  0  0  0
 26 27  1  0  0  0  0
 26 28  1  0  0  0  0
 26 29  1  0  0  0  0
 29 30  1  0  0  0  0
 31 32  1  0  0  0  0
 31 33  1  0  0  0  0
 31 34  1  0  0  0  0
M  END
>  <IDNUMBER>
AH-034/21082028

>  <NAME>
Bergenin (Vakerin; Peltophorin; Cuscutin)

>  <ADD_INFO>
http://www.specs.net/enter.php?specsid=AH-034/21082028

>  <H_ACCEPTORS>
6

>  <H_DONORS>
5

>  <ROTATABLE_BONDS>
2

>  <LOGP>
-2.97

>  <LOGS>
0.47999999

>  <TPSA>
145.91

>  <PRICE>
N07

$$$$
AH-034/32464017
  MOE2011           3D

 20 20  0  0  0  0  0  0  0  0999 V2000
    0.0530   -0.0720   -0.0010 C   0  0  0  0  0  0  0  0  0  0  0  0
   -0.7690   -1.2110    0.0000 C   0  0  0  0  0  0  0  0  0  0  0  0
    1.5210   -0.2640   -0.0010 C   0  0  0  0  0  0  0  0  0  0  0  0
   -0.5350    1.1990   -0.0010 C   0  0  0  0  0  0  0  0  0  0  0  0
    0.0710    2.1010   -0.0020 H   0  0  0  0  0  0  0  0  0  0  0  0
   -2.1570   -1.0920    0.0010 C   0  0  0  0  0  0  0  0  0  0  0  0
   -2.7680   -1.9890    0.0020 H   0  0  0  0  0  0  0  0  0  0  0  0
    2.0060   -1.3900   -0.0020 O   0  0  0  0  0  0  0  0  0  0  0  0
   -2.7250    0.1780    0.0000 C   0  0  0  0  0  0  0  0  0  0  0  0
   -0.2590   -2.4860    0.0010 O   0  0  0  0  0  0  0  0  0  0  0  0
    0.7270   -2.4190    0.0000 H   0  0  0  0  0  0  0  0  0  0  0  0
   -1.9270    1.3200   -0.0010 C   0  0  0  0  0  0  0  0  0  0  0  0
   -2.3900    2.3030   -0.0010 H   0  0  0  0  0  0  0  0  0  0  0  0
    2.1890    0.9120    0.0010 O   0  0  0  0  0  0  0  0  0  0  0  0
   -4.0790    0.3510    0.0000 O   0  0  0  0  0  0  0  0  0  0  0  0
   -4.5070   -0.5210    0.0000 H   0  0  0  0  0  0  0  0  0  0  0  0
    3.6120    0.7810    0.0020 C   0  0  0  0  0  0  0  0  0  0  0  0
    3.9460    0.2630    0.9060 H   0  0  0  0  0  0  0  0  0  0  0  0
    4.0450    1.7850   -0.0050 H   0  0  0  0  0  0  0  0  0  0  0  0
    3.9470    0.2510   -0.8960 H   0  0  0  0  0  0  0  0  0  0  0  0
  1  2  2  0  0  0  0
  1  3  1  0  0  0  0
  1  4  1  0  0  0  0
  2  6  1  0  0  0  0
  2 10  1  0  0  0  0
  3  8  2  0  0  0  0
  3 14  1  0  0  0  0
  4  5  1  0  0  0  0
  4 12  2  0  0  0  0
  6  7  1  0  0  0  0
  6  9  2  0  0  0  0
  9 12  1  0  0  0  0
  9 15  1  0  0  0  0
 10 11  1  0  0  0  0
 12 13  1  0  0  0  0
 14 17  1  0  0  0  0
 15 16  1  0  0  0  0
 17 18  1  0  0  0  0
 17 19  1  0  0  0  0
 17 20  1  0  0  0  0
M  END
>  <IDNUMBER>
AH-034/32464017

>  <NAME>
methyl 2,4-dihydroxybenzoate

>  <ADD_INFO>
http://www.specs.net/enter.php?specsid=AH-034/32464017

>  <H_ACCEPTORS>
2

>  <H_DONORS>
2

>  <ROTATABLE_BONDS>
2

>  <LOGP>
2.1199999

>  <LOGS>
-1.66

>  <TPSA>
66.760002

>  <PRICE>
N06

$$$$
AH-034/32464027
  MOE2011           2D

 18 19  0  0  0  0  0  0  0  0999 V2000
   -1.4500    1.3990    0.0000 O   0  0  0  0  0  0  0  0  0  0  0  0
   -0.2440    0.6670    0.0000 C   0  0  0  0  0  0  0  0  0  0  0  0
   -2.6820    0.7580    0.0000 C   0  0  0  0  0  0  0  0  0  0  0  0
   -1.5340   -1.4200    0.0000 C   0  0  0  0  0  0  0  0  0  0  0  0
   -1.5480   -2.5050    0.0000 H   0  0  0  0  0  0  0  0  0  0  0  0
   -2.6690   -0.7150    0.0000 C   0  0  0  0  0  0  0  0  0  0  0  0
   -3.6380   -1.2010    0.0000 H   0  0  0  0  0  0  0  0  0  0  0  0
   -0.2560   -0.7280    0.0000 C   0  0  0  0  0  0  0  0  0  0  0  0
    0.9440    1.3940    0.0000 C   0  0  0  0  0  0  0  0  0  0  0  0
    0.9140    2.4780    0.0000 H   0  0  0  0  0  0  0  0  0  0  0  0
   -3.7410    1.3760    0.0000 O   0  0  0  0  0  0  0  0  0  0  0  0
    0.9610   -1.4130    0.0000 C   0  0  0  0  0  0  0  0  0  0  0  0
    0.9890   -2.5000    0.0000 H   0  0  0  0  0  0  0  0  0  0  0  0
    2.1460    0.6950    0.0000 C   0  0  0  0  0  0  0  0  0  0  0  0
    2.1630   -0.6990    0.0000 C   0  0  0  0  0  0  0  0  0  0  0  0
    3.1120   -1.2290    0.0000 H   0  0  0  0  0  0  0  0  0  0  0  0
    3.3470    1.3430    0.0000 O   0  0  0  0  0  0  0  0  0  0  0  0
    3.1870    2.3010    0.0000 H   0  0  0  0  0  0  0  0  0  0  0  0
  1  2  1  0  0  0  0
  1  3  1  0  0  0  0
  2  8  2  0  0  0  0
  2  9  1  0  0  0  0
  3  6  1  0  0  0  0
  3 11  2  0  0  0  0
  4  5  1  0  0  0  0
  4  6  2  0  0  0  0
  4  8  1  0  0  0  0
  6  7  1  0  0  0  0
  8 12  1  0  0  0  0
  9 10  1  0  0  0  0
  9 14  2  0  0  0  0
 12 13  1  0  0  0  0
 12 15  2  0  0  0  0
 14 15  1  0  0  0  0
 14 17  1  0  0  0  0
 15 16  1  0  0  0  0
 17 18  1  0  0  0  0
M  END
>  <IDNUMBER>
AH-034/32464027

>  <NAME>
Umbelliferone (Hydrangin, Skimmetin)

>  <ADD_INFO>
http://www.specs.net/enter.php?specsid=AH-034/32464027

>  <H_ACCEPTORS>
1

>  <H_DONORS>
1

>  <ROTATABLE_BONDS>
0

>  <LOGP>
1.58

>  <LOGS>
-1.15

>  <TPSA>
46.529999

>  <PRICE>
N07

$$$$
AH-034/32472064
  MOE2011           3D

 42 45  0  0  1  0  0  0  0  0999 V2000
    0.2270    0.3080    0.6420 C   0  0  3  0  0  0  0  0  0  0  0  0
    0.5510    1.6220   -0.0620 C   0  0  3  0  0  0  0  0  0  0  0  0
   -1.1870    0.5120    1.2310 C   0  0  3  0  0  0  0  0  0  0  0  0
   -0.2690    1.8000   -1.2160 O   0  0  0  0  0  0  0  0  0  0  0  0
   -1.6090    1.6880   -1.0790 C   0  0  0  0  0  0  0  0  0  0  0  0
    1.1400    0.3080    1.7570 O   0  0  0  0  0  0  0  0  0  0  0  0
    1.9300    1.7800   -0.3700 O   0  0  0  0  0  0  0  0  0  0  0  0
    0.3760   -1.0390   -0.1660 C   0  0  3  0  0  0  0  0  0  0  0  0
    2.7570    0.6860    0.0130 C   0  0  1  0  0  0  0  0  0  0  0  0
   -2.1620    1.2530    0.2740 C   0  0  2  0  0  0  0  0  0  0  0  0
    2.4950    0.0420    1.2750 O   0  0  0  0  0  0  0  0  0  0  0  0
   -1.7560   -0.8190    1.7320 C   0  0  0  0  0  0  0  0  0  0  0  0
   -1.0890   -1.2150    2.5100 H   0  0  0  0  0  0  0  0  0  0  0  0
   -2.7240   -0.6620    2.2230 H   0  0  0  0  0  0  0  0  0  0  0  0
    1.3160   -0.9100   -1.3840 C   0  0  0  0  0  0  0  0  0  0  0  0
    1.4450   -1.8830   -1.8730 H   0  0  0  0  0  0  0  0  0  0  0  0
    0.8580   -0.2630   -2.1400 H   0  0  0  0  0  0  0  0  0  0  0  0
   -2.3590    1.9410   -2.0190 O   0  0  0  0  0  0  0  0  0  0  0  0
   -0.9920   -1.6520   -0.5800 C   0  0  3  0  0  0  0  0  0  0  0  0
   -1.9020   -1.8720    0.6400 C   0  0  0  0  0  0  0  0  0  0  0  0
   -2.9440   -1.8970    0.2960 H   0  0  0  0  0  0  0  0  0  0  0  0
   -1.7150   -2.8560    1.0880 H   0  0  0  0  0  0  0  0  0  0  0  0
    2.7200   -0.3990   -1.0640 C   0  0  0  0  0  0  0  0  0  0  0  0
    3.1580   -0.0260   -1.9990 H   0  0  0  0  0  0  0  0  0  0  0  0
    3.3290   -1.2530   -0.7390 H   0  0  0  0  0  0  0  0  0  0  0  0
    4.1770    1.2450    0.1200 C   0  0  0  0  0  0  0  0  0  0  0  0
    4.4900    1.7290   -0.8110 H   0  0  0  0  0  0  0  0  0  0  0  0
    4.9000    0.4640    0.3800 H   0  0  0  0  0  0  0  0  0  0  0  0
    4.2260    2.0040    0.9100 H   0  0  0  0  0  0  0  0  0  0  0  0
   -2.7740    2.4800    0.9580 C   0  0  0  0  0  0  0  0  0  0  0  0
   -3.2790    2.1970    1.8870 H   0  0  0  0  0  0  0  0  0  0  0  0
   -3.5120    2.9640    0.3100 H   0  0  0  0  0  0  0  0  0  0  0  0
   -2.0070    3.2260    1.1960 H   0  0  0  0  0  0  0  0  0  0  0  0
   -0.8750   -2.9800   -1.3410 C   0  0  0  0  0  0  0  0  0  0  0  0
   -1.8630   -3.4330   -1.4840 H   0  0  0  0  0  0  0  0  0  0  0  0
   -0.2500   -3.6960   -0.7960 H   0  0  0  0  0  0  0  0  0  0  0  0
   -0.4490   -2.8350   -2.3380 H   0  0  0  0  0  0  0  0  0  0  0  0
    0.3470    2.4690    0.6070 H   0  0  0  0  0  0  0  0  0  0  0  0
   -1.0800    1.1280    2.1370 H   0  0  0  0  0  0  0  0  0  0  0  0
    0.8430   -1.7750    0.5060 H   0  0  0  0  0  0  0  0  0  0  0  0
   -2.9920    0.5760    0.0350 H   0  0  0  0  0  0  0  0  0  0  0  0
   -1.4930   -0.9570   -1.2630 H   0  0  0  0  0  0  0  0  0  0  0  0
  1  2  1  0  0  0  0
  1  3  1  0  0  0  0
  1  6  1  0  0  0  0
  1  8  1  0  0  0  0
  2  4  1  0  0  0  0
  2  7  1  0  0  0  0
  2 38  1  0  0  0  0
  3 10  1  0  0  0  0
  3 12  1  0  0  0  0
  3 39  1  0  0  0  0
  4  5  1  0  0  0  0
  5 10  1  0  0  0  0
  5 18  2  0  0  0  0
  6 11  1  0  0  0  0
  7  9  1  0  0  0  0
  8 15  1  0  0  0  0
  8 19  1  0  0  0  0
  8 40  1  0  0  0  0
  9 11  1  0  0  0  0
  9 23  1  0  0  0  0
  9 26  1  0  0  0  0
 10 30  1  0  0  0  0
 10 41  1  0  0  0  0
 12 13  1  0  0  0  0
 12 14  1  0  0  0  0
 12 20  1  0  0  0  0
 15 16  1  0  0  0  0
 15 17  1  0  0  0  0
 15 23  1  0  0  0  0
 19 20  1  0  0  0  0
 19 34  1  0  0  0  0
 19 42  1  0  0  0  0
 20 21  1  0  0  0  0
 20 22  1  0  0  0  0
 23 24  1  0  0  0  0
 23 25  1  0  0  0  0
 26 27  1  0  0  0  0
 26 28  1  0  0  0  0
 26 29  1  0  0  0  0
 30 31  1  0  0  0  0
 30 32  1  0  0  0  0
 30 33  1  0  0  0  0
 34 35  1  0  0  0  0
 34 36  1  0  0  0  0
 34 37  1  0  0  0  0
M  END
>  <IDNUMBER>
AH-034/32472064

>  <NAME>
Artemisinin (Arteannuin, Qinghaosu, Qing Hau Sau)

>  <ADD_INFO>
http://www.specs.net/enter.php?specsid=AH-034/32472064

>  <H_ACCEPTORS>
5

>  <H_DONORS>
0

>  <ROTATABLE_BONDS>
0

>  <LOGP>
2.9000001

>  <LOGS>
-3.74

>  <TPSA>
53.990002

>  <PRICE>
N06

$$$$
AH-214/20712011
  MOE2011           3D

 26 28  0  0  1  0  0  0  0  0999 V2000
   -0.0340   -1.4320    0.2170 N   0  0  0  0  0  0  0  0  0  0  0  0
   -1.0370   -0.6210    0.1600 C   0  0  0  0  0  0  0  0  0  0  0  0
   -1.0040    0.7330   -0.0170 N   0  0  0  0  0  0  0  0  0  0  0  0
    1.2380   -0.8320    0.0950 C   0  0  0  0  0  0  0  0  0  0  0  0
    0.2170    1.4790   -0.1440 C   0  0  0  0  0  0  0  0  0  0  0  0
    0.2250    2.0130   -1.1010 H   0  0  0  0  0  0  0  0  0  0  0  0
    0.2860    2.2120    0.6670 H   0  0  0  0  0  0  0  0  0  0  0  0
    1.4120    0.5570   -0.0810 C   0  0  0  0  0  0  0  0  0  0  0  0
   -2.4770   -1.0940    0.2490 C   0  0  3  0  0  0  0  0  0  0  0  0
   -2.3200    1.3200   -0.0960 C   0  0  0  0  0  0  0  0  0  0  0  0
   -2.3940    2.2610    0.4580 H   0  0  0  0  0  0  0  0  0  0  0  0
   -2.5940    1.4930   -1.1420 H   0  0  0  0  0  0  0  0  0  0  0  0
   -3.2040    0.2280    0.5300 C   0  0  0  0  0  0  0  0  0  0  0  0
   -4.2220    0.2580    0.1270 H   0  0  0  0  0  0  0  0  0  0  0  0
   -3.2530    0.3920    1.6140 H   0  0  0  0  0  0  0  0  0  0  0  0
   -2.9000   -1.6310   -0.9910 O   0  0  0  0  0  0  0  0  0  0  0  0
   -2.2750   -2.3490   -1.2000 H   0  0  0  0  0  0  0  0  0  0  0  0
    2.7070    1.0860   -0.1990 C   0  0  0  0  0  0  0  0  0  0  0  0
    2.8550    2.1550   -0.3350 H   0  0  0  0  0  0  0  0  0  0  0  0
    2.3630   -1.6600    0.1480 C   0  0  0  0  0  0  0  0  0  0  0  0
    2.2320   -2.7300    0.2830 H   0  0  0  0  0  0  0  0  0  0  0  0
    3.8190    0.2450   -0.1450 C   0  0  0  0  0  0  0  0  0  0  0  0
    4.8190    0.6600   -0.2400 H   0  0  0  0  0  0  0  0  0  0  0  0
    3.6480   -1.1270    0.0290 C   0  0  0  0  0  0  0  0  0  0  0  0
    4.5130   -1.7830    0.0710 H   0  0  0  0  0  0  0  0  0  0  0  0
   -2.6200   -1.8310    1.0440 H   0  0  0  0  0  0  0  0  0  0  0  0
  1  2  2  0  0  0  0
  1  4  1  0  0  0  0
  2  3  1  0  0  0  0
  2  9  1  0  0  0  0
  3  5  1  0  0  0  0
  3 10  1  0  0  0  0
  4  8  2  0  0  0  0
  4 20  1  0  0  0  0
  5  6  1  0  0  0  0
  5  7  1  0  0  0  0
  5  8  1  0  0  0  0
  8 18  1  0  0  0  0
  9 13  1  0  0  0  0
  9 16  1  0  0  0  0
  9 26  1  0  0  0  0
 10 11  1  0  0  0  0
 10 12  1  0  0  0  0
 10 13  1  0  0  0  0
 13 14  1  0  0  0  0
 13 15  1  0  0  0  0
 16 17  1  0  0  0  0
 18 19  1  0  0  0  0
 18 22  2  0  0  0  0
 20 21  1  0  0  0  0
 20 24  2  0  0  0  0
 22 23  1  0  0  0  0
 22 24  1  0  0  0  0
 24 25  1  0  0  0  0
M  END
>  <IDNUMBER>
AH-214/20712011

>  <NAME>
l-peganine

>  <ADD_INFO>
http://www.specs.net/enter.php?specsid=AH-214/20712011

>  <H_ACCEPTORS>
3

>  <H_DONORS>
1

>  <ROTATABLE_BONDS>
0

>  <LOGP>
0.63999999

>  <LOGS>
-0.11

>  <TPSA>
35.830002

>  <PRICE>
N07

$$$$
AH-214/21172019
  MOE2011           3D

 85 89  0  0  1  0  0  0  0  0999 V2000
    0.1120    0.9370    0.2810 C   0  0  2  0  0  0  0  0  0  0  0  0
    0.8820   -0.4700    0.2100 C   0  0  1  0  0  0  0  0  0  0  0  0
   -3.3670   -0.0190    0.5100 C   0  0  2  0  0  0  0  0  0  0  0  0
   -1.9920   -0.5390    0.5990 C   0  0  0  0  0  0  0  0  0  0  0  0
   -1.3340    0.7100   -0.2140 C   0  0  3  0  0  0  0  0  0  0  0  0
    2.3460    0.0110    0.4740 C   0  0  1  0  0  0  0  0  0  0  0  0
    3.5770   -0.9410    0.4200 C   0  0  2  0  0  0  0  0  0  0  0  0
   -4.7580    0.4720    0.4480 C   0  0  3  0  0  0  0  0  0  0  0  0
    4.7310   -0.1320    0.7700 O   0  0  0  0  0  0  0  0  0  0  0  0
    0.9840    1.8120   -0.6290 C   0  0  0  0  0  0  0  0  0  0  0  0
    0.8700    2.8810   -0.4150 H   0  0  0  0  0  0  0  0  0  0  0  0
    0.7230    1.6830   -1.6870 H   0  0  0  0  0  0  0  0  0  0  0  0
   -6.0150   -0.3380    0.0750 C   0  0  0  0  0  0  0  0  0  0  0  0
   -1.2750   -1.4950    1.2150 C   0  0  0  0  0  0  0  0  0  0  0  0
   -1.7750   -2.2460    1.8190 H   0  0  0  0  0  0  0  0  0  0  0  0
    2.4360    1.3450   -0.3530 C   0  0  2  0  0  0  0  0  0  0  0  0
   -4.1340    1.7020   -0.5300 C   0  0  2  0  0  0  0  0  0  0  0  0
   -2.4160    1.9940   -0.4120 C   0  0  0  0  0  0  0  0  0  0  0  0
   -2.1380    2.5150   -1.3390 H   0  0  0  0  0  0  0  0  0  0  0  0
   -2.2630    2.7330    0.3810 H   0  0  0  0  0  0  0  0  0  0  0  0
    0.2470   -1.4730    1.2220 C   0  0  0  0  0  0  0  0  0  0  0  0
    0.5850   -2.4930    1.0060 H   0  0  0  0  0  0  0  0  0  0  0  0
    0.5790   -1.2490    2.2420 H   0  0  0  0  0  0  0  0  0  0  0  0
   -3.3030   -0.8240   -0.9830 C   0  0  0  0  0  0  0  0  0  0  0  0
   -2.8280   -0.2450   -1.7830 H   0  0  0  0  0  0  0  0  0  0  0  0
   -2.7760   -1.7950   -0.9160 H   0  0  0  0  0  0  0  0  0  0  0  0
    5.9180   -0.7420    0.2320 C   0  0  2  0  0  0  0  0  0  0  0  0
    6.9400    0.3200   -0.2340 C   0  0  0  0  0  0  0  0  0  0  0  0
    3.9660   -1.5830   -0.9100 C   0  0  0  0  0  0  0  0  0  0  0  0
    3.4790   -2.5470   -1.0860 H   0  0  0  0  0  0  0  0  0  0  0  0
    3.7380   -0.9540   -1.7710 H   0  0  0  0  0  0  0  0  0  0  0  0
   -5.6530   -1.6160   -0.6800 C   0  0  2  0  0  0  0  0  0  0  0  0
   -4.5950   -1.2790   -1.6850 C   0  0  0  0  0  0  0  0  0  0  0  0
   -4.3800   -2.1500   -2.3200 H   0  0  0  0  0  0  0  0  0  0  0  0
   -4.9490   -0.5190   -2.3910 H   0  0  0  0  0  0  0  0  0  0  0  0
    5.4710   -1.7450   -0.8280 C   0  0  0  0  0  0  0  0  0  0  0  0
    5.9510   -1.6110   -1.8010 H   0  0  0  0  0  0  0  0  0  0  0  0
    5.7220   -2.7610   -0.4990 H   0  0  0  0  0  0  0  0  0  0  0  0
    0.1380    1.6040    1.6870 C   0  0  0  0  0  0  0  0  0  0  0  0
   -0.5910    2.4160    1.7560 H   0  0  0  0  0  0  0  0  0  0  0  0
    1.1050    2.0660    1.9170 H   0  0  0  0  0  0  0  0  0  0  0  0
   -0.0550    0.9000    2.4980 H   0  0  0  0  0  0  0  0  0  0  0  0
    0.8050   -1.1640   -1.1850 C   0  0  0  0  0  0  0  0  0  0  0  0
    1.3600   -2.1060   -1.1780 H   0  0  0  0  0  0  0  0  0  0  0  0
    1.2050   -0.5500   -1.9950 H   0  0  0  0  0  0  0  0  0  0  0  0
   -0.2150   -1.4430   -1.4660 H   0  0  0  0  0  0  0  0  0  0  0  0
   -3.0410    0.6540    1.9410 C   0  0  0  0  0  0  0  0  0  0  0  0
   -3.2380    1.7340    1.9840 H   0  0  0  0  0  0  0  0  0  0  0  0
   -2.0800    0.5360    2.4520 H   0  0  0  0  0  0  0  0  0  0  0  0
   -3.7200    0.1900    2.6800 H   0  0  0  0  0  0  0  0  0  0  0  0
    3.0910    1.2130   -1.6010 O   0  0  0  0  0  0  0  0  0  0  0  0
    3.1400    2.0980   -2.0000 H   0  0  0  0  0  0  0  0  0  0  0  0
   -4.8060    2.9210   -0.2180 O   0  0  0  0  0  0  0  0  0  0  0  0
   -4.4550    3.6070   -0.8110 H   0  0  0  0  0  0  0  0  0  0  0  0
    3.4620   -2.0310    1.5060 C   0  0  0  0  0  0  0  0  0  0  0  0
    2.7190   -2.7880    1.2460 H   0  0  0  0  0  0  0  0  0  0  0  0
    3.1980   -1.5930    2.4750 H   0  0  0  0  0  0  0  0  0  0  0  0
    4.4120   -2.5520    1.6670 H   0  0  0  0  0  0  0  0  0  0  0  0
    8.0820   -0.3600   -0.7740 O   0  0  0  0  0  0  0  0  0  0  0  0
    8.7280    0.3120   -1.0520 H   0  0  0  0  0  0  0  0  0  0  0  0
   -7.0180    0.5490   -0.6930 C   0  0  0  0  0  0  0  0  0  0  0  0
   -7.2420    1.4640   -0.1320 H   0  0  0  0  0  0  0  0  0  0  0  0
   -7.9710    0.0340   -0.8560 H   0  0  0  0  0  0  0  0  0  0  0  0
   -6.6370    0.8480   -1.6740 H   0  0  0  0  0  0  0  0  0  0  0  0
   -6.7220   -0.7800    1.3840 C   0  0  0  0  0  0  0  0  0  0  0  0
   -7.0630    0.0840    1.9660 H   0  0  0  0  0  0  0  0  0  0  0  0
   -6.0460   -1.3620    2.0210 H   0  0  0  0  0  0  0  0  0  0  0  0
   -7.6010   -1.4000    1.1740 H   0  0  0  0  0  0  0  0  0  0  0  0
   -6.7880   -2.1740   -1.3320 O   0  0  0  0  0  0  0  0  0  0  0  0
   -6.4980   -2.9830   -1.7870 H   0  0  0  0  0  0  0  0  0  0  0  0
    6.3840    1.2570   -1.3090 C   0  0  0  0  0  0  0  0  0  0  0  0
    5.5560    1.8620   -0.9270 H   0  0  0  0  0  0  0  0  0  0  0  0
    6.0400    0.7020   -2.1870 H   0  0  0  0  0  0  0  0  0  0  0  0
    7.1620    1.9400   -1.6690 H   0  0  0  0  0  0  0  0  0  0  0  0
    7.4170    1.1550    0.9620 C   0  0  0  0  0  0  0  0  0  0  0  0
    6.5970    1.7140    1.4240 H   0  0  0  0  0  0  0  0  0  0  0  0
    8.1910    1.8700    0.6570 H   0  0  0  0  0  0  0  0  0  0  0  0
    7.8750    0.5160    1.7250 H   0  0  0  0  0  0  0  0  0  0  0  0
    2.3530    0.3510    1.5210 H   0  0  0  0  0  0  0  0  0  0  0  0
    6.3830   -1.3140    1.0460 H   0  0  0  0  0  0  0  0  0  0  0  0
   -1.1900    0.4010   -1.2540 H   0  0  0  0  0  0  0  0  0  0  0  0
   -5.1010    1.0530    1.3180 H   0  0  0  0  0  0  0  0  0  0  0  0
    2.9810    2.0960    0.2310 H   0  0  0  0  0  0  0  0  0  0  0  0
   -4.3430    1.4860   -1.5830 H   0  0  0  0  0  0  0  0  0  0  0  0
   -5.2690   -2.3800    0.0090 H   0  0  0  0  0  0  0  0  0  0  0  0
  1  2  1  0  0  0  0
  1  5  1  0  0  0  0
  1 10  1  0  0  0  0
  1 39  1  0  0  0  0
  2  6  1  0  0  0  0
  2 21  1  0  0  0  0
  2 43  1  0  0  0  0
  3  4  1  0  0  0  0
  3  8  1  0  0  0  0
  3 24  1  0  0  0  0
  3 47  1  0  0  0  0
  4  5  1  0  0  0  0
  4 14  2  0  0  0  0
  5 18  1  0  0  0  0
  5 81  1  0  0  0  0
  6  7  1  0  0  0  0
  6 16  1  0  0  0  0
  6 79  1  0  0  0  0
  7  9  1  0  0  0  0
  7 29  1  0  0  0  0
  7 55  1  0  0  0  0
  8 13  1  0  0  0  0
  8 17  1  0  0  0  0
  8 82  1  0  0  0  0
  9 27  1  0  0  0  0
 10 11  1  0  0  0  0
 10 12  1  0  0  0  0
 10 16  1  0  0  0  0
 13 32  1  0  0  0  0
 13 61  1  0  0  0  0
 13 65  1  0  0  0  0
 14 15  1  0  0  0  0
 14 21  1  0  0  0  0
 16 51  1  0  0  0  0
 16 83  1  0  0  0  0
 17 18  1  0  0  0  0
 17 53  1  0  0  0  0
 17 84  1  0  0  0  0
 18 19  1  0  0  0  0
 18 20  1  0  0  0  0
 21 22  1  0  0  0  0
 21 23  1  0  0  0  0
 24 25  1  0  0  0  0
 24 26  1  0  0  0  0
 24 33  1  0  0  0  0
 27 28  1  0  0  0  0
 27 36  1  0  0  0  0
 27 80  1  0  0  0  0
 28 59  1  0  0  0  0
 28 71  1  0  0  0  0
 28 75  1  0  0  0  0
 29 30  1  0  0  0  0
 29 31  1  0  0  0  0
 29 36  1  0  0  0  0
 32 33  1  0  0  0  0
 32 69  1  0  0  0  0
 32 85  1  0  0  0  0
 33 34  1  0  0  0  0
 33 35  1  0  0  0  0
 36 37  1  0  0  0  0
 36 38  1  0  0  0  0
 39 40  1  0  0  0  0
 39 41  1  0  0  0  0
 39 42  1  0  0  0  0
 43 44  1  0  0  0  0
 43 45  1  0  0  0  0
 43 46  1  0  0  0  0
 47 48  1  0  0  0  0
 47 49  1  0  0  0  0
 47 50  1  0  0  0  0
 51 52  1  0  0  0  0
 53 54  1  0  0  0  0
 55 56  1  0  0  0  0
 55 57  1  0  0  0  0
 55 58  1  0  0  0  0
 59 60  1  0  0  0  0
 61 62  1  0  0  0  0
 61 63  1  0  0  0  0
 61 64  1  0  0  0  0
 65 66  1  0  0  0  0
 65 67  1  0  0  0  0
 65 68  1  0  0  0  0
 69 70  1  0  0  0  0
 71 72  1  0  0  0  0
 71 73  1  0  0  0  0
 71 74  1  0  0  0  0
 75 76  1  0  0  0  0
 75 77  1  0  0  0  0
 75 78  1  0  0  0  0
M  END
>  <IDNUMBER>
AH-214/21172019

>  <NAME>
Astragenol

>  <ADD_INFO>
http://www.specs.net/enter.php?specsid=AH-214/21172019

>  <H_ACCEPTORS>
5

>  <H_DONORS>
4

>  <ROTATABLE_BONDS>
2

>  <LOGP>
4.4099998

>  <LOGS>
-6.54

>  <TPSA>
90.150002

>  <PRICE>
N07

$$$$
AH-262/20354032
  MOE2011           3D

 56 59  0  0  1  0  0  0  0  0999 V2000
   -1.8330    0.2600   -0.5930 C   0  0  3  0  0  0  0  0  0  0  0  0
   -0.9750    1.0000    0.4490 C   0  0  3  0  0  0  0  0  0  0  0  0
    2.5830   -0.6030   -0.3230 C   0  0  3  0  0  0  0  0  0  0  0  0
    3.3100    0.7060   -0.0030 C   0  0  0  0  0  0  0  0  0  0  0  0
    1.0380   -0.5040    0.0370 C   0  0  3  0  0  0  0  0  0  0  0  0
    0.5460    0.9570    0.2700 C   0  0  3  0  0  0  0  0  0  0  0  0
   -3.2730    0.5620   -0.0640 C   0  0  3  0  0  0  0  0  0  0  0  0
   -1.6650    2.3490    0.6020 C   0  0  0  0  0  0  0  0  0  0  0  0
   -1.4670    3.0040   -0.2520 H   0  0  0  0  0  0  0  0  0  0  0  0
   -1.3420    2.8650    1.5120 H   0  0  0  0  0  0  0  0  0  0  0  0
   -3.1500    1.9580    0.6350 C   0  0  3  0  0  0  0  0  0  0  0  0
    4.4620    0.7680    0.6880 C   0  0  0  0  0  0  0  0  0  0  0  0
    4.9520    1.7070    0.9200 H   0  0  0  0  0  0  0  0  0  0  0  0
   -3.8030   -0.4140    0.8750 N   0  0  0  0  0  0  0  0  0  0  0  0
   -3.7310   -0.1440    1.8550 H   0  0  0  0  0  0  0  0  0  0  0  0
   -1.3710   -1.2070   -0.6030 C   0  0  0  0  0  0  0  0  0  0  0  0
   -1.5500   -1.6780    0.3710 H   0  0  0  0  0  0  0  0  0  0  0  0
   -1.9380   -1.7840   -1.3430 H   0  0  0  0  0  0  0  0  0  0  0  0
    0.1290   -1.3290   -0.9110 C   0  0  0  0  0  0  0  0  0  0  0  0
    0.2910   -1.0390   -1.9530 H   0  0  0  0  0  0  0  0  0  0  0  0
    0.4090   -2.3880   -0.8420 H   0  0  0  0  0  0  0  0  0  0  0  0
    3.1700   -1.7730    0.5250 C   0  0  0  0  0  0  0  0  0  0  0  0
    2.8070   -1.6980    1.5590 H   0  0  0  0  0  0  0  0  0  0  0  0
    2.8130   -2.7380    0.1430 H   0  0  0  0  0  0  0  0  0  0  0  0
    1.1740    1.9160   -0.7340 C   0  0  0  0  0  0  0  0  0  0  0  0
    0.9800    1.5980   -1.7600 H   0  0  0  0  0  0  0  0  0  0  0  0
    0.7640    2.9270   -0.6370 H   0  0  0  0  0  0  0  0  0  0  0  0
   -4.4090   -1.5910    0.5060 C   0  0  0  0  0  0  0  0  0  0  0  0
    2.6910    1.9890   -0.5200 C   0  0  0  0  0  0  0  0  0  0  0  0
    2.8980    2.8030    0.1880 H   0  0  0  0  0  0  0  0  0  0  0  0
    3.1670    2.2670   -1.4680 H   0  0  0  0  0  0  0  0  0  0  0  0
    5.1880   -0.4550    1.1000 C   0  0  0  0  0  0  0  0  0  0  0  0
   -4.5910   -1.9480   -0.6530 O   0  0  0  0  0  0  0  0  0  0  0  0
    6.2080   -0.3550    1.7780 O   0  0  0  0  0  0  0  0  0  0  0  0
    4.6900   -1.7810    0.5870 C   0  0  0  0  0  0  0  0  0  0  0  0
    5.1410   -1.9780   -0.3900 H   0  0  0  0  0  0  0  0  0  0  0  0
    5.0170   -2.5660    1.2780 H   0  0  0  0  0  0  0  0  0  0  0  0
   -1.7630    0.8290   -2.0320 C   0  0  0  0  0  0  0  0  0  0  0  0
   -0.7750    0.7490   -2.4830 H   0  0  0  0  0  0  0  0  0  0  0  0
   -2.0580    1.8820   -2.0820 H   0  0  0  0  0  0  0  0  0  0  0  0
   -2.4480    0.2770   -2.6860 H   0  0  0  0  0  0  0  0  0  0  0  0
   -3.5630    1.8540    2.0050 O   0  0  0  0  0  0  0  0  0  0  0  0
   -3.5690    2.7570    2.3710 H   0  0  0  0  0  0  0  0  0  0  0  0
    2.8530   -0.9020   -1.8180 C   0  0  0  0  0  0  0  0  0  0  0  0
    2.5080   -1.9020   -2.1000 H   0  0  0  0  0  0  0  0  0  0  0  0
    3.9240   -0.8610   -2.0530 H   0  0  0  0  0  0  0  0  0  0  0  0
    2.3610   -0.1780   -2.4760 H   0  0  0  0  0  0  0  0  0  0  0  0
   -4.8520   -2.4150    1.6830 C   0  0  0  0  0  0  0  0  0  0  0  0
   -4.0060   -2.5940    2.3530 H   0  0  0  0  0  0  0  0  0  0  0  0
   -5.2380   -3.3770    1.3360 H   0  0  0  0  0  0  0  0  0  0  0  0
   -5.6420   -1.8870    2.2260 H   0  0  0  0  0  0  0  0  0  0  0  0
   -1.1370    0.4800    1.4110 H   0  0  0  0  0  0  0  0  0  0  0  0
    0.8970   -0.9780    1.0210 H   0  0  0  0  0  0  0  0  0  0  0  0
    0.9420    1.2670    1.2510 H   0  0  0  0  0  0  0  0  0  0  0  0
   -3.9860    0.6260   -0.8960 H   0  0  0  0  0  0  0  0  0  0  0  0
   -3.7760    2.7090    0.1420 H   0  0  0  0  0  0  0  0  0  0  0  0
  1  2  1  0  0  0  0
  1  7  1  0  0  0  0
  1 16  1  0  0  0  0
  1 38  1  0  0  0  0
  2  6  1  0  0  0  0
  2  8  1  0  0  0  0
  2 52  1  0  0  0  0
  3  4  1  0  0  0  0
  3  5  1  0  0  0  0
  3 22  1  0  0  0  0
  3 44  1  0  0  0  0
  4 12  2  0  0  0  0
  4 29  1  0  0  0  0
  5  6  1  0  0  0  0
  5 19  1  0  0  0  0
  5 53  1  0  0  0  0
  6 25  1  0  0  0  0
  6 54  1  0  0  0  0
  7 11  1  0  0  0  0
  7 14  1  0  0  0  0
  7 55  1  0  0  0  0
  8  9  1  0  0  0  0
  8 10  1  0  0  0  0
  8 11  1  0  0  0  0
 11 42  1  0  0  0  0
 11 56  1  0  0  0  0
 12 13  1  0  0  0  0
 12 32  1  0  0  0  0
 14 15  1  0  0  0  0
 14 28  1  0  0  0  0
 16 17  1  0  0  0  0
 16 18  1  0  0  0  0
 16 19  1  0  0  0  0
 19 20  1  0  0  0  0
 19 21  1  0  0  0  0
 22 23  1  0  0  0  0
 22 24  1  0  0  0  0
 22 35  1  0  0  0  0
 25 26  1  0  0  0  0
 25 27  1  0  0  0  0
 25 29  1  0  0  0  0
 28 33  2  0  0  0  0
 28 48  1  0  0  0  0
 29 30  1  0  0  0  0
 29 31  1  0  0  0  0
 32 34  2  0  0  0  0
 32 35  1  0  0  0  0
 35 36  1  0  0  0  0
 35 37  1  0  0  0  0
 38 39  1  0  0  0  0
 38 40  1  0  0  0  0
 38 41  1  0  0  0  0
 42 43  1  0  0  0  0
 44 45  1  0  0  0  0
 44 46  1  0  0  0  0
 44 47  1  0  0  0  0
 48 49  1  0  0  0  0
 48 50  1  0  0  0  0
 48 51  1  0  0  0  0
M  END
>  <IDNUMBER>
AH-262/20354032

>  <NAME>
Derivative of 16,17-Dihydroxyandrost-4-en-3-one

>  <ADD_INFO>
http://www.specs.net/enter.php?specsid=AH-262/20354032

>  <H_ACCEPTORS>
4

>  <H_DONORS>
2

>  <ROTATABLE_BONDS>
2

>  <LOGP>
1.67

>  <LOGS>
-3.1400001

>  <TPSA>
66.400002

>  <PRICE>
N05

$$$$
AH-262/20354047
  MOE2011           3D

 72 75  0  0  1  0  0  0  0  0999 V2000
   -0.1830   -0.1180    0.9970 C   0  0  3  0  0  0  0  0  0  0  0  0
    0.6350    1.0140    0.2550 C   0  0  3  0  0  0  0  0  0  0  0  0
   -4.4200   -0.4770   -0.6240 C   0  0  3  0  0  0  0  0  0  0  0  0
   -2.7550   -0.2060    1.4950 C   0  0  3  0  0  0  0  0  0  0  0  0
   -1.4510    0.6170    1.5560 C   0  0  3  0  0  0  0  0  0  0  0  0
   -3.0800   -0.8970    0.1310 C   0  0  3  0  0  0  0  0  0  0  0  0
   -5.4270    0.1980    0.3050 C   0  0  0  0  0  0  0  0  0  0  0  0
   -0.5720   -1.2930    0.0710 C   0  0  0  0  0  0  0  0  0  0  0  0
   -0.7560   -2.2030    0.6610 H   0  0  0  0  0  0  0  0  0  0  0  0
    0.2640   -1.5650   -0.5850 H   0  0  0  0  0  0  0  0  0  0  0  0
   -1.8240   -1.0120   -0.7630 C   0  0  3  0  0  0  0  0  0  0  0  0
    2.1590    0.9640    0.4900 C   0  0  0  0  0  0  0  0  0  0  0  0
   -6.3590    1.0730   -0.1140 C   0  0  0  0  0  0  0  0  0  0  0  0
   -7.0570    1.5550    0.5620 H   0  0  0  0  0  0  0  0  0  0  0  0
    0.0070    2.3220    0.7550 C   0  0  0  0  0  0  0  0  0  0  0  0
    0.3930    2.6080    1.7410 H   0  0  0  0  0  0  0  0  0  0  0  0
    0.1630    3.1630    0.0720 H   0  0  0  0  0  0  0  0  0  0  0  0
    4.9850   -1.1760   -0.4230 C   0  0  0  0  0  0  0  0  0  0  0  0
   -1.4720    1.9780    0.8620 C   0  0  0  0  0  0  0  0  0  0  0  0
   -1.9280    1.9270   -0.1290 H   0  0  0  0  0  0  0  0  0  0  0  0
   -2.0090    2.7350    1.4430 H   0  0  0  0  0  0  0  0  0  0  0  0
   -3.9300    0.5120    2.1750 C   0  0  0  0  0  0  0  0  0  0  0  0
   -3.8140    0.4440    3.2640 H   0  0  0  0  0  0  0  0  0  0  0  0
   -3.9260    1.5820    1.9360 H   0  0  0  0  0  0  0  0  0  0  0  0
   -4.1660    0.4790   -1.8200 C   0  0  0  0  0  0  0  0  0  0  0  0
   -3.6230    1.3640   -1.4670 H   0  0  0  0  0  0  0  0  0  0  0  0
   -3.5390    0.0000   -2.5800 H   0  0  0  0  0  0  0  0  0  0  0  0
   -5.2680   -0.0840    1.7700 C   0  0  0  0  0  0  0  0  0  0  0  0
   -6.0670    0.3800    2.3610 H   0  0  0  0  0  0  0  0  0  0  0  0
   -5.3090   -1.1610    1.9680 H   0  0  0  0  0  0  0  0  0  0  0  0
    4.2790   -0.1600    0.1290 O   0  0  0  0  0  0  0  0  0  0  0  0
   -6.4690    1.4650   -1.5370 C   0  0  0  0  0  0  0  0  0  0  0  0
    8.2550    2.0320   -0.8290 C   0  0  0  0  0  0  0  0  0  0  0  0
    2.9410   -0.0370   -0.3550 C   0  0  0  0  0  0  0  0  0  0  0  0
    2.9670    0.3260   -1.3870 H   0  0  0  0  0  0  0  0  0  0  0  0
    2.4410   -1.0080   -0.2980 H   0  0  0  0  0  0  0  0  0  0  0  0
    4.5710   -1.9700   -1.2610 O   0  0  0  0  0  0  0  0  0  0  0  0
    2.7110    1.6780    1.3280 O   0  0  0  0  0  0  0  0  0  0  0  0
    6.3870   -1.2650    0.1640 C   0  0  3  0  0  0  0  0  0  0  0  0
    9.1610    1.4530   -1.4890 O   0  0  0  0  0  0  0  0  0  0  0  0
   -7.4010    2.1830   -1.8930 O   0  0  0  0  0  0  0  0  0  0  0  0
    0.4210    0.9500   -1.1580 O   0  0  0  0  0  0  0  0  0  0  0  0
    0.6660    1.8090   -1.5510 H   0  0  0  0  0  0  0  0  0  0  0  0
    7.3790   -0.3540   -0.5520 C   0  0  0  0  0  0  0  0  0  0  0  0
    8.3980   -0.6250   -0.2440 H   0  0  0  0  0  0  0  0  0  0  0  0
    7.3250   -0.5200   -1.6360 H   0  0  0  0  0  0  0  0  0  0  0  0
    0.5890   -0.7010    2.2050 C   0  0  0  0  0  0  0  0  0  0  0  0
   -0.0510   -1.3690    2.7930 H   0  0  0  0  0  0  0  0  0  0  0  0
    0.9390    0.0890    2.8790 H   0  0  0  0  0  0  0  0  0  0  0  0
    1.4580   -1.2860    1.8870 H   0  0  0  0  0  0  0  0  0  0  0  0
   -5.4430    0.9490   -2.5140 C   0  0  0  0  0  0  0  0  0  0  0  0
   -5.8980    0.1400   -3.0950 H   0  0  0  0  0  0  0  0  0  0  0  0
   -5.1910    1.7600   -3.2070 H   0  0  0  0  0  0  0  0  0  0  0  0
   -1.9900   -2.0840   -1.6880 O   0  0  0  0  0  0  0  0  0  0  0  0
   -1.2130   -2.0820   -2.2740 H   0  0  0  0  0  0  0  0  0  0  0  0
    7.1560    1.1270   -0.2600 C   0  0  0  0  0  0  0  0  0  0  0  0
    7.1150    1.2900    0.8240 H   0  0  0  0  0  0  0  0  0  0  0  0
    6.2020    1.4590   -0.6850 H   0  0  0  0  0  0  0  0  0  0  0  0
   -5.1020   -1.7710   -1.1540 C   0  0  0  0  0  0  0  0  0  0  0  0
   -4.5030   -2.2500   -1.9330 H   0  0  0  0  0  0  0  0  0  0  0  0
   -6.0920   -1.5770   -1.5820 H   0  0  0  0  0  0  0  0  0  0  0  0
   -5.2530   -2.5020   -0.3500 H   0  0  0  0  0  0  0  0  0  0  0  0
    6.8940   -2.6810   -0.0090 N   0  3  0  0  0  0  0  0  0  0  0  0
    7.8790   -2.7810    0.2670 H   0  0  0  0  0  0  0  0  0  0  0  0
    6.7980   -2.9580   -0.9990 H   0  0  0  0  0  0  0  0  0  0  0  0
    6.3290   -3.3470    0.5340 H   0  0  0  0  0  0  0  0  0  0  0  0
    8.1070    3.2550   -0.5580 O   0  5  0  0  0  0  0  0  0  0  0  0
   -2.5510   -1.0570    2.1680 H   0  0  0  0  0  0  0  0  0  0  0  0
   -1.2770    0.8370    2.6210 H   0  0  0  0  0  0  0  0  0  0  0  0
   -3.2800   -1.9380    0.4390 H   0  0  0  0  0  0  0  0  0  0  0  0
   -1.6880   -0.1030   -1.3490 H   0  0  0  0  0  0  0  0  0  0  0  0
    6.3610   -1.0990    1.2450 H   0  0  0  0  0  0  0  0  0  0  0  0
  1  2  1  0  0  0  0
  1  5  1  0  0  0  0
  1  8  1  0  0  0  0
  1 47  1  0  0  0  0
  2 12  1  0  0  0  0
  2 15  1  0  0  0  0
  2 42  1  0  0  0  0
  3  6  1  0  0  0  0
  3  7  1  0  0  0  0
  3 25  1  0  0  0  0
  3 59  1  0  0  0  0
  4  5  1  0  0  0  0
  4  6  1  0  0  0  0
  4 22  1  0  0  0  0
  4 68  1  0  0  0  0
  5 19  1  0  0  0  0
  5 69  1  0  0  0  0
  6 11  1  0  0  0  0
  6 70  1  0  0  0  0
  7 13  2  0  0  0  0
  7 28  1  0  0  0  0
  8  9  1  0  0  0  0
  8 10  1  0  0  0  0
  8 11  1  0  0  0  0
 11 54  1  0  0  0  0
 11 71  1  0  0  0  0
 12 34  1  0  0  0  0
 12 38  2  0  0  0  0
 13 14  1  0  0  0  0
 13 32  1  0  0  0  0
 15 16  1  0  0  0  0
 15 17  1  0  0  0  0
 15 19  1  0  0  0  0
 18 31  1  0  0  0  0
 18 37  2  0  0  0  0
 18 39  1  0  0  0  0
 19 20  1  0  0  0  0
 19 21  1  0  0  0  0
 22 23  1  0  0  0  0
 22 24  1  0  0  0  0
 22 28  1  0  0  0  0
 25 26  1  0  0  0  0
 25 27  1  0  0  0  0
 25 51  1  0  0  0  0
 28 29  1  0  0  0  0
 28 30  1  0  0  0  0
 31 34  1  0  0  0  0
 32 41  2  0  0  0  0
 32 51  1  0  0  0  0
 33 40  2  0  0  0  0
 33 56  1  0  0  0  0
 33 67  1  0  0  0  0
 34 35  1  0  0  0  0
 34 36  1  0  0  0  0
 39 44  1  0  0  0  0
 39 63  1  0  0  0  0
 39 72  1  0  0  0  0
 42 43  1  0  0  0  0
 44 45  1  0  0  0  0
 44 46  1  0  0  0  0
 44 56  1  0  0  0  0
 47 48  1  0  0  0  0
 47 49  1  0  0  0  0
 47 50  1  0  0  0  0
 51 52  1  0  0  0  0
 51 53  1  0  0  0  0
 54 55  1  0  0  0  0
 56 57  1  0  0  0  0
 56 58  1  0  0  0  0
 59 60  1  0  0  0  0
 59 61  1  0  0  0  0
 59 62  1  0  0  0  0
 63 64  1  0  0  0  0
 63 65  1  0  0  0  0
 63 66  1  0  0  0  0
M  CHG  1  63   1
M  CHG  1  67  -1
M  END
>  <IDNUMBER>
AH-262/20354047

>  <NAME>
4-amino-5-[2-(11,17-dihydroxy-10,13-dimethyl-3-oxo-2,3,6,7,8,9,10,11,12,13,14,15,16,17-tetradecahydro-1H-cyclopenta[a]phenanthren-17-yl)-2-oxoethoxy]-5-oxopentanoic acid

>  <ADD_INFO>
http://www.specs.net/enter.php?specsid=AH-262/20354047

>  <H_ACCEPTORS>
9

>  <H_DONORS>
4

>  <ROTATABLE_BONDS>
8

>  <LOGP>
-2.1500001

>  <LOGS>
-3.02

>  <TPSA>
164.22

>  <PRICE>
N05

>  <SALTDATA>
HCl

$$$$
AH-357/03462038
  MOE2011           3D

 34 36  0  0  0  0  0  0  0  0999 V2000
   -2.0080   -0.5560   -0.2120 C   0  0  0  0  0  0  0  0  0  0  0  0
   -0.8500    0.2230   -0.3910 C   0  0  0  0  0  0  0  0  0  0  0  0
   -1.0450    1.6070   -0.2840 C   0  0  0  0  0  0  0  0  0  0  0  0
   -1.8650   -1.9640   -0.3200 O   0  0  0  0  0  0  0  0  0  0  0  0
   -3.2620   -0.0100    0.0700 C   0  0  0  0  0  0  0  0  0  0  0  0
   -2.2770    2.1990   -0.0060 C   0  0  0  0  0  0  0  0  0  0  0  0
   -2.9330   -2.8320   -0.1530 C   0  0  0  0  0  0  0  0  0  0  0  0
   -4.4000   -0.8990    0.2500 C   0  0  0  0  0  0  0  0  0  0  0  0
   -5.3730   -0.4740    0.4700 H   0  0  0  0  0  0  0  0  0  0  0  0
   -3.4070    1.3790    0.1780 C   0  0  0  0  0  0  0  0  0  0  0  0
   -4.3720    1.8280    0.3960 H   0  0  0  0  0  0  0  0  0  0  0  0
   -4.2380   -2.2210    0.1440 C   0  0  0  0  0  0  0  0  0  0  0  0
   -5.0680   -2.9060    0.2740 H   0  0  0  0  0  0  0  0  0  0  0  0
   -0.0980    2.5810   -0.4310 O   0  0  0  0  0  0  0  0  0  0  0  0
   -0.7090    3.7770   -0.2450 C   0  0  0  0  0  0  0  0  0  0  0  0
   -0.0710    4.6450   -0.3320 H   0  0  0  0  0  0  0  0  0  0  0  0
   -2.0450    3.6000    0.0200 C   0  0  0  0  0  0  0  0  0  0  0  0
   -2.7670    4.3830    0.2060 H   0  0  0  0  0  0  0  0  0  0  0  0
   -2.8150   -4.0480   -0.2450 O   0  0  0  0  0  0  0  0  0  0  0  0
    3.6880   -0.9260    0.0810 C   0  0  0  0  0  0  0  0  0  0  0  0
    2.6570   -0.6890   -0.7530 C   0  0  0  0  0  0  0  0  0  0  0  0
    2.5950   -1.2710   -1.6730 H   0  0  0  0  0  0  0  0  0  0  0  0
    0.3180   -0.4630   -0.6720 O   0  0  0  0  0  0  0  0  0  0  0  0
    1.5290    0.2880   -0.5940 C   0  0  0  0  0  0  0  0  0  0  0  0
    1.5780    0.9990   -1.4260 H   0  0  0  0  0  0  0  0  0  0  0  0
    1.5820    0.8220    0.3580 H   0  0  0  0  0  0  0  0  0  0  0  0
    4.7170   -1.9720   -0.2610 C   0  0  0  0  0  0  0  0  0  0  0  0
    5.7100   -1.5170   -0.3340 H   0  0  0  0  0  0  0  0  0  0  0  0
    4.5080   -2.4670   -1.2160 H   0  0  0  0  0  0  0  0  0  0  0  0
    4.7440   -2.7450    0.5140 H   0  0  0  0  0  0  0  0  0  0  0  0
    3.9360   -0.2260    1.3870 C   0  0  0  0  0  0  0  0  0  0  0  0
    4.9220    0.2510    1.3760 H   0  0  0  0  0  0  0  0  0  0  0  0
    3.9130   -0.9480    2.2100 H   0  0  0  0  0  0  0  0  0  0  0  0
    3.2050    0.5520    1.6150 H   0  0  0  0  0  0  0  0  0  0  0  0
  1  2  2  0  0  0  0
  1  4  1  0  0  0  0
  1  5  1  0  0  0  0
  2  3  1  0  0  0  0
  2 23  1  0  0  0  0
  3  6  2  0  0  0  0
  3 14  1  0  0  0  0
  4  7  1  0  0  0  0
  5  8  1  0  0  0  0
  5 10  2  0  0  0  0
  6 10  1  0  0  0  0
  6 17  1  0  0  0  0
  7 12  1  0  0  0  0
  7 19  2  0  0  0  0
  8  9  1  0  0  0  0
  8 12  2  0  0  0  0
 10 11  1  0  0  0  0
 12 13  1  0  0  0  0
 14 15  1  0  0  0  0
 15 16  1  0  0  0  0
 15 17  2  0  0  0  0
 17 18  1  0  0  0  0
 20 21  2  0  0  0  0
 20 27  1  0  0  0  0
 20 31  1  0  0  0  0
 21 22  1  0  0  0  0
 21 24  1  0  0  0  0
 23 24  1  0  0  0  0
 24 25  1  0  0  0  0
 24 26  1  0  0  0  0
 27 28  1  0  0  0  0
 27 29  1  0  0  0  0
 27 30  1  0  0  0  0
 31 32  1  0  0  0  0
 31 33  1  0  0  0  0
 31 34  1  0  0  0  0
M  END
>  <IDNUMBER>
AH-357/03462038

>  <NAME>
Imperatorin (Pentasalen,BAN; Marmelide, Ammidin; Marmelosin)

>  <ADD_INFO>
http://www.specs.net/enter.php?specsid=AH-357/03462038

>  <H_ACCEPTORS>
1

>  <H_DONORS>
0

>  <ROTATABLE_BONDS>
3

>  <LOGP>
3.9400001

>  <LOGS>
-4.54

>  <TPSA>
48.669998

>  <PRICE>
N07

$$$$
AH-357/03514063
  MOE2011           3D

 24 26  0  0  0  0  0  0  0  0999 V2000
    1.0450    0.2250    0.0000 C   0  0  0  0  0  0  0  0  0  0  0  0
   -0.1550    0.9610    0.0000 C   0  0  0  0  0  0  0  0  0  0  0  0
   -1.3220    0.1850    0.0000 C   0  0  0  0  0  0  0  0  0  0  0  0
    2.2590    0.9630    0.0000 O   0  0  0  0  0  0  0  0  0  0  0  0
    1.0900   -1.1710    0.0000 C   0  0  0  0  0  0  0  0  0  0  0  0
   -1.3290   -1.2110    0.0000 C   0  0  0  0  0  0  0  0  0  0  0  0
    3.5010    0.3470   -0.0010 C   0  0  0  0  0  0  0  0  0  0  0  0
    2.3820   -1.8420    0.0000 C   0  0  0  0  0  0  0  0  0  0  0  0
    2.4130   -2.9260    0.0010 H   0  0  0  0  0  0  0  0  0  0  0  0
   -0.1030   -1.9040    0.0010 C   0  0  0  0  0  0  0  0  0  0  0  0
   -0.0960   -2.9910    0.0010 H   0  0  0  0  0  0  0  0  0  0  0  0
    3.5080   -1.1250    0.0000 C   0  0  0  0  0  0  0  0  0  0  0  0
    4.4830   -1.5980    0.0000 H   0  0  0  0  0  0  0  0  0  0  0  0
   -2.6110    0.6400   -0.0010 O   0  0  0  0  0  0  0  0  0  0  0  0
   -3.4290   -0.4410   -0.0010 C   0  0  0  0  0  0  0  0  0  0  0  0
   -4.4880   -0.2250   -0.0010 H   0  0  0  0  0  0  0  0  0  0  0  0
   -2.6950   -1.6020    0.0000 C   0  0  0  0  0  0  0  0  0  0  0  0
   -3.0920   -2.6070    0.0000 H   0  0  0  0  0  0  0  0  0  0  0  0
    4.5500    0.9800   -0.0010 O   0  0  0  0  0  0  0  0  0  0  0  0
   -0.0320    2.3400    0.0010 O   0  0  0  0  0  0  0  0  0  0  0  0
   -1.2430    3.0820    0.0010 C   0  0  0  0  0  0  0  0  0  0  0  0
   -0.9820    4.1450    0.0020 H   0  0  0  0  0  0  0  0  0  0  0  0
   -1.8270    2.8870    0.9060 H   0  0  0  0  0  0  0  0  0  0  0  0
   -1.8260    2.8880   -0.9060 H   0  0  0  0  0  0  0  0  0  0  0  0
  1  2  2  0  0  0  0
  1  4  1  0  0  0  0
  1  5  1  0  0  0  0
  2  3  1  0  0  0  0
  2 20  1  0  0  0  0
  3  6  2  0  0  0  0
  3 14  1  0  0  0  0
  4  7  1  0  0  0  0
  5  8  1  0  0  0  0
  5 10  2  0  0  0  0
  6 10  1  0  0  0  0
  6 17  1  0  0  0  0
  7 12  1  0  0  0  0
  7 19  2  0  0  0  0
  8  9  1  0  0  0  0
  8 12  2  0  0  0  0
 10 11  1  0  0  0  0
 12 13  1  0  0  0  0
 14 15  1  0  0  0  0
 15 16  1  0  0  0  0
 15 17  2  0  0  0  0
 17 18  1  0  0  0  0
 20 21  1  0  0  0  0
 21 22  1  0  0  0  0
 21 23  1  0  0  0  0
 21 24  1  0  0  0  0
M  END
>  <IDNUMBER>
AH-357/03514063

>  <NAME>
9-methoxy-7H-furo[3,2-g]chromen-7-one

>  <ADD_INFO>
http://www.specs.net/enter.php?specsid=AH-357/03514063

>  <H_ACCEPTORS>
1

>  <H_DONORS>
0

>  <ROTATABLE_BONDS>
1

>  <LOGP>
2

>  <LOGS>
-2.49

>  <TPSA>
48.669998

>  <PRICE>
N07

$$$$
AH-357/03514064
  MOE2011           3D

 32 34  0  0  0  0  0  0  0  0999 V2000
    0.2890   -1.7180    0.1040 C   0  0  0  0  0  0  0  0  0  0  0  0
   -0.2350   -0.4880   -0.0810 C   0  0  0  0  0  0  0  0  0  0  0  0
    1.7680   -1.8300    0.1870 C   0  0  0  0  0  0  0  0  0  0  0  0
    2.5410   -0.5910    0.0710 C   0  0  0  0  0  0  0  0  0  0  0  0
    0.5000    0.6820   -0.1850 O   0  0  0  0  0  0  0  0  0  0  0  0
    1.8650    0.6090   -0.1080 C   0  0  0  0  0  0  0  0  0  0  0  0
    3.9380   -0.6100    0.1450 C   0  0  0  0  0  0  0  0  0  0  0  0
   -1.6830   -0.2480   -0.1650 C   0  0  0  0  0  0  0  0  0  0  0  0
    2.5800    1.8030   -0.2140 C   0  0  0  0  0  0  0  0  0  0  0  0
    2.0440    2.7360   -0.3540 H   0  0  0  0  0  0  0  0  0  0  0  0
    4.6590    0.5730    0.0380 C   0  0  0  0  0  0  0  0  0  0  0  0
    5.7430    0.5630    0.0950 H   0  0  0  0  0  0  0  0  0  0  0  0
   -2.3360    0.4070    0.8870 C   0  0  0  0  0  0  0  0  0  0  0  0
   -1.7880    0.7330    1.7670 H   0  0  0  0  0  0  0  0  0  0  0  0
   -3.7060    0.6260    0.8140 C   0  0  0  0  0  0  0  0  0  0  0  0
    2.3720   -2.8880    0.3530 O   0  0  0  0  0  0  0  0  0  0  0  0
    3.9730    1.7730   -0.1390 C   0  0  0  0  0  0  0  0  0  0  0  0
   -4.4290    0.2340   -0.3080 C   0  0  0  0  0  0  0  0  0  0  0  0
   -2.4230   -0.6670   -1.2840 C   0  0  0  0  0  0  0  0  0  0  0  0
   -1.9300   -1.1680   -2.1160 H   0  0  0  0  0  0  0  0  0  0  0  0
   -0.4430   -2.8810    0.2420 O   0  0  0  0  0  0  0  0  0  0  0  0
   -1.3920   -2.6680    0.2470 H   0  0  0  0  0  0  0  0  0  0  0  0
   -3.7980   -0.4270   -1.3540 C   0  0  0  0  0  0  0  0  0  0  0  0
   -4.3660   -0.7350   -2.2280 H   0  0  0  0  0  0  0  0  0  0  0  0
    4.6350   -1.7760    0.3260 O   0  0  0  0  0  0  0  0  0  0  0  0
    3.9680   -2.5050    0.3900 H   0  0  0  0  0  0  0  0  0  0  0  0
   -4.3280    1.2060    1.8810 O   0  0  0  0  0  0  0  0  0  0  0  0
   -5.1850    0.7530    1.9840 H   0  0  0  0  0  0  0  0  0  0  0  0
    4.7100    2.9180   -0.2360 O   0  0  0  0  0  0  0  0  0  0  0  0
    4.1070    3.6740   -0.3310 H   0  0  0  0  0  0  0  0  0  0  0  0
   -5.7600    0.5180   -0.4180 O   0  0  0  0  0  0  0  0  0  0  0  0
   -5.8920    1.3920   -0.0090 H   0  0  0  0  0  0  0  0  0  0  0  0
  1  2  2  0  0  0  0
  1  3  1  0  0  0  0
  1 21  1  0  0  0  0
  2  5  1  0  0  0  0
  2  8  1  0  0  0  0
  3  4  1  0  0  0  0
  3 16  2  0  0  0  0
  4  6  2  0  0  0  0
  4  7  1  0  0  0  0
  5  6  1  0  0  0  0
  6  9  1  0  0  0  0
  7 11  2  0  0  0  0
  7 25  1  0  0  0  0
  8 13  2  0  0  0  0
  8 19  1  0  0  0  0
  9 10  1  0  0  0  0
  9 17  2  0  0  0  0
 11 12  1  0  0  0  0
 11 17  1  0  0  0  0
 13 14  1  0  0  0  0
 13 15  1  0  0  0  0
 15 18  2  0  0  0  0
 15 27  1  0  0  0  0
 17 29  1  0  0  0  0
 18 23  1  0  0  0  0
 18 31  1  0  0  0  0
 19 20  1  0  0  0  0
 19 23  2  0  0  0  0
 21 22  1  0  0  0  0
 23 24  1  0  0  0  0
 25 26  1  0  0  0  0
 27 28  1  0  0  0  0
 29 30  1  0  0  0  0
 31 32  1  0  0  0  0
M  END
>  <IDNUMBER>
AH-357/03514064

>  <NAME>
Quercetin

>  <ADD_INFO>
http://www.specs.net/enter.php?specsid=AH-357/03514064

>  <H_ACCEPTORS>
2

>  <H_DONORS>
5

>  <ROTATABLE_BONDS>
1

>  <LOGP>
1.48

>  <LOGS>
-2.0899999

>  <TPSA>
127.45

>  <PRICE>
N07

$$$$
AI-372/20970054
  MOE2011           3D

 29 30  0  0  0  0  0  0  0  0999 V2000
   -1.4460   -0.4850   -0.3210 C   0  0  0  0  0  0  0  0  0  0  0  0
   -0.1850   -1.2330   -0.6070 C   0  0  0  0  0  0  0  0  0  0  0  0
   -2.4480   -1.1320    0.4270 C   0  0  0  0  0  0  0  0  0  0  0  0
   -3.6550   -0.5020    0.7250 C   0  0  0  0  0  0  0  0  0  0  0  0
   -4.4040   -1.0330    1.3020 H   0  0  0  0  0  0  0  0  0  0  0  0
   -1.6780    0.8220   -0.7630 C   0  0  0  0  0  0  0  0  0  0  0  0
   -0.9480    1.3820   -1.3370 H   0  0  0  0  0  0  0  0  0  0  0  0
    0.9340   -0.6220   -1.4250 C   0  0  0  0  0  0  0  0  0  0  0  0
    1.3070   -1.4020   -2.1020 H   0  0  0  0  0  0  0  0  0  0  0  0
    0.5740    0.1610   -2.0980 H   0  0  0  0  0  0  0  0  0  0  0  0
   -0.0920   -2.3740   -0.1390 O   0  0  0  0  0  0  0  0  0  0  0  0
   -3.8660    0.7930    0.2700 C   0  0  0  0  0  0  0  0  0  0  0  0
   -2.2930   -2.4120    0.9010 O   0  0  0  0  0  0  0  0  0  0  0  0
   -1.3900   -2.7130    0.6200 H   0  0  0  0  0  0  0  0  0  0  0  0
   -2.8900    1.4560   -0.4670 C   0  0  0  0  0  0  0  0  0  0  0  0
   -3.0730    2.4700   -0.8130 H   0  0  0  0  0  0  0  0  0  0  0  0
    2.0650   -0.1220   -0.5640 C   0  0  0  0  0  0  0  0  0  0  0  0
   -5.0290    1.4580    0.5290 O   0  0  0  0  0  0  0  0  0  0  0  0
   -5.6060    0.8840    1.0590 H   0  0  0  0  0  0  0  0  0  0  0  0
    2.1850    1.2390   -0.2520 C   0  0  0  0  0  0  0  0  0  0  0  0
    1.4700    1.9630   -0.6350 H   0  0  0  0  0  0  0  0  0  0  0  0
    3.0060   -1.0220   -0.0450 C   0  0  0  0  0  0  0  0  0  0  0  0
    2.9260   -2.0850   -0.2640 H   0  0  0  0  0  0  0  0  0  0  0  0
    4.0540   -0.5710    0.7590 C   0  0  0  0  0  0  0  0  0  0  0  0
    4.7810   -1.2770    1.1520 H   0  0  0  0  0  0  0  0  0  0  0  0
    3.2320    1.6890    0.5550 C   0  0  0  0  0  0  0  0  0  0  0  0
    3.3210    2.7460    0.7910 H   0  0  0  0  0  0  0  0  0  0  0  0
    4.1670    0.7850    1.0580 C   0  0  0  0  0  0  0  0  0  0  0  0
    4.9820    1.1370    1.6850 H   0  0  0  0  0  0  0  0  0  0  0  0
  1  2  1  0  0  0  0
  1  3  2  0  0  0  0
  1  6  1  0  0  0  0
  2  8  1  0  0  0  0
  2 11  2  0  0  0  0
  3  4  1  0  0  0  0
  3 13  1  0  0  0  0
  4  5  1  0  0  0  0
  4 12  2  0  0  0  0
  6  7  1  0  0  0  0
  6 15  2  0  0  0  0
  8  9  1  0  0  0  0
  8 10  1  0  0  0  0
  8 17  1  0  0  0  0
 12 15  1  0  0  0  0
 12 18  1  0  0  0  0
 13 14  1  0  0  0  0
 15 16  1  0  0  0  0
 17 20  2  0  0  0  0
 17 22  1  0  0  0  0
 18 19  1  0  0  0  0
 20 21  1  0  0  0  0
 20 26  1  0  0  0  0
 22 23  1  0  0  0  0
 22 24  2  0  0  0  0
 24 25  1  0  0  0  0
 24 28  1  0  0  0  0
 26 27  1  0  0  0  0
 26 28  2  0  0  0  0
 28 29  1  0  0  0  0
M  END
>  <IDNUMBER>
AI-372/20970054

>  <NAME>
1-(2,4-dihydroxyphenyl)-2-phenylethanone

>  <ADD_INFO>
http://www.specs.net/enter.php?specsid=AI-372/20970054

>  <H_ACCEPTORS>
1

>  <H_DONORS>
2

>  <ROTATABLE_BONDS>
3

>  <LOGP>
3.2

>  <LOGS>
-3.02

>  <TPSA>
57.529999

>  <PRICE>
N08

$$$$
AJ-091/33874001
  MOE2011           3D

 27 28  0  0  0  0  0  0  0  0999 V2000
   -0.7970    0.8200   -0.1830 C   0  0  0  0  0  0  0  0  0  0  0  0
    0.3870    1.6810   -0.2810 C   0  0  0  0  0  0  0  0  0  0  0  0
   -0.6400   -0.5590   -0.2800 C   0  0  0  0  0  0  0  0  0  0  0  0
   -2.0690    1.3800   -0.0260 C   0  0  0  0  0  0  0  0  0  0  0  0
    0.5710   -1.1790   -0.4180 O   0  0  0  0  0  0  0  0  0  0  0  0
    1.6930    1.0080   -0.5910 C   0  0  0  0  0  0  0  0  0  0  0  0
    1.7850    0.9900   -1.6840 H   0  0  0  0  0  0  0  0  0  0  0  0
    2.5120    1.6100   -0.1810 H   0  0  0  0  0  0  0  0  0  0  0  0
    1.7200   -0.4110   -0.0130 C   0  0  0  0  0  0  0  0  0  0  0  0
   -1.7650   -1.3850   -0.2520 C   0  0  0  0  0  0  0  0  0  0  0  0
   -1.6380   -2.4590   -0.3400 H   0  0  0  0  0  0  0  0  0  0  0  0
   -3.1910    0.5620    0.0210 C   0  0  0  0  0  0  0  0  0  0  0  0
   -4.1810    0.9920    0.1420 H   0  0  0  0  0  0  0  0  0  0  0  0
   -3.0300   -0.8160   -0.0980 C   0  0  0  0  0  0  0  0  0  0  0  0
    0.2480    2.8980   -0.1730 O   0  0  0  0  0  0  0  0  0  0  0  0
   -2.2540    2.7340    0.0770 O   0  0  0  0  0  0  0  0  0  0  0  0
   -1.3610    3.1550    0.0140 H   0  0  0  0  0  0  0  0  0  0  0  0
   -4.1530   -1.5910   -0.0550 O   0  0  0  0  0  0  0  0  0  0  0  0
   -3.8990   -2.5240   -0.1510 H   0  0  0  0  0  0  0  0  0  0  0  0
    1.8330   -0.4160    1.5220 C   0  0  0  0  0  0  0  0  0  0  0  0
    2.7480    0.0840    1.8560 H   0  0  0  0  0  0  0  0  0  0  0  0
    1.8390   -1.4430    1.9050 H   0  0  0  0  0  0  0  0  0  0  0  0
    0.9830    0.0820    1.9990 H   0  0  0  0  0  0  0  0  0  0  0  0
    2.9360   -1.1530   -0.5870 C   0  0  0  0  0  0  0  0  0  0  0  0
    3.8750   -0.6520   -0.3280 H   0  0  0  0  0  0  0  0  0  0  0  0
    2.8700   -1.2240   -1.6790 H   0  0  0  0  0  0  0  0  0  0  0  0
    2.9780   -2.1830   -0.2140 H   0  0  0  0  0  0  0  0  0  0  0  0
  1  2  1  0  0  0  0
  1  3  2  0  0  0  0
  1  4  1  0  0  0  0
  2  6  1  0  0  0  0
  2 15  2  0  0  0  0
  3  5  1  0  0  0  0
  3 10  1  0  0  0  0
  4 12  2  0  0  0  0
  4 16  1  0  0  0  0
  5  9  1  0  0  0  0
  6  7  1  0  0  0  0
  6  8  1  0  0  0  0
  6  9  1  0  0  0  0
  9 20  1  0  0  0  0
  9 24  1  0  0  0  0
 10 11  1  0  0  0  0
 10 14  2  0  0  0  0
 12 13  1  0  0  0  0
 12 14  1  0  0  0  0
 14 18  1  0  0  0  0
 16 17  1  0  0  0  0
 18 19  1  0  0  0  0
 20 21  1  0  0  0  0
 20 22  1  0  0  0  0
 20 23  1  0  0  0  0
 24 25  1  0  0  0  0
 24 26  1  0  0  0  0
 24 27  1  0  0  0  0
M  END
>  <IDNUMBER>
AJ-091/33874001

>  <NAME>
5,7-dihydroxy-2,2-dimethyl-2,3-dihydro-4H-chromen-4-one

>  <ADD_INFO>
http://www.specs.net/enter.php?specsid=AJ-091/33874001

>  <H_ACCEPTORS>
1

>  <H_DONORS>
2

>  <ROTATABLE_BONDS>
0

>  <LOGP>
2.3299999

>  <LOGS>
-2.1300001

>  <TPSA>
66.760002

>  <PRICE>
N06

$$$$
AJ-091/33874004
  MOE2011           3D

 33 34  0  0  0  0  0  0  0  0999 V2000
    0.1600    0.6010   -0.2330 C   0  0  0  0  0  0  0  0  0  0  0  0
    1.3900    1.4330   -0.3240 C   0  0  0  0  0  0  0  0  0  0  0  0
    0.3230   -0.7870   -0.2630 C   0  0  0  0  0  0  0  0  0  0  0  0
   -1.1320    1.1520   -0.1390 C   0  0  0  0  0  0  0  0  0  0  0  0
    1.5260   -1.4350   -0.3400 O   0  0  0  0  0  0  0  0  0  0  0  0
    2.6530    0.7030   -0.6880 C   0  0  0  0  0  0  0  0  0  0  0  0
    2.6630    0.6100   -1.7810 H   0  0  0  0  0  0  0  0  0  0  0  0
    3.5160    1.3070   -0.3850 H   0  0  0  0  0  0  0  0  0  0  0  0
    2.6890   -0.6630   -0.0100 C   0  0  0  0  0  0  0  0  0  0  0  0
   -0.7920   -1.6240   -0.2270 C   0  0  0  0  0  0  0  0  0  0  0  0
   -0.6570   -2.7030   -0.2600 H   0  0  0  0  0  0  0  0  0  0  0  0
   -2.2440    0.2930   -0.0940 C   0  0  0  0  0  0  0  0  0  0  0  0
   -3.2430    0.7070   -0.0350 H   0  0  0  0  0  0  0  0  0  0  0  0
   -2.0780   -1.0930   -0.1400 C   0  0  0  0  0  0  0  0  0  0  0  0
    1.3980    2.6470   -0.1570 O   0  0  0  0  0  0  0  0  0  0  0  0
   -1.2370    2.5180   -0.1280 O   0  0  0  0  0  0  0  0  0  0  0  0
   -3.0780   -2.0270   -0.1090 O   0  0  0  0  0  0  0  0  0  0  0  0
    3.8840   -1.4560   -0.5600 C   0  0  0  0  0  0  0  0  0  0  0  0
    4.8340   -0.9510   -0.3540 H   0  0  0  0  0  0  0  0  0  0  0  0
    3.7940   -1.5970   -1.6430 H   0  0  0  0  0  0  0  0  0  0  0  0
    3.9220   -2.4600   -0.1210 H   0  0  0  0  0  0  0  0  0  0  0  0
    2.8350   -0.5660    1.5180 C   0  0  0  0  0  0  0  0  0  0  0  0
    3.7560   -0.0440    1.7980 H   0  0  0  0  0  0  0  0  0  0  0  0
    2.8520   -1.5650    1.9680 H   0  0  0  0  0  0  0  0  0  0  0  0
    1.9930   -0.0400    1.9800 H   0  0  0  0  0  0  0  0  0  0  0  0
   -2.5050    3.0990    0.1420 C   0  0  0  0  0  0  0  0  0  0  0  0
   -2.3680    4.1830    0.2080 H   0  0  0  0  0  0  0  0  0  0  0  0
   -2.9040    2.7550    1.1020 H   0  0  0  0  0  0  0  0  0  0  0  0
   -3.2080    2.9030   -0.6740 H   0  0  0  0  0  0  0  0  0  0  0  0
   -4.4140   -1.5480   -0.0280 C   0  0  0  0  0  0  0  0  0  0  0  0
   -5.0810   -2.4160   -0.0130 H   0  0  0  0  0  0  0  0  0  0  0  0
   -4.6710   -0.9460   -0.9060 H   0  0  0  0  0  0  0  0  0  0  0  0
   -4.5770   -0.9870    0.8980 H   0  0  0  0  0  0  0  0  0  0  0  0
  1  2  1  0  0  0  0
  1  3  2  0  0  0  0
  1  4  1  0  0  0  0
  2  6  1  0  0  0  0
  2 15  2  0  0  0  0
  3  5  1  0  0  0  0
  3 10  1  0  0  0  0
  4 12  2  0  0  0  0
  4 16  1  0  0  0  0
  5  9  1  0  0  0  0
  6  7  1  0  0  0  0
  6  8  1  0  0  0  0
  6  9  1  0  0  0  0
  9 18  1  0  0  0  0
  9 22  1  0  0  0  0
 10 11  1  0  0  0  0
 10 14  2  0  0  0  0
 12 13  1  0  0  0  0
 12 14  1  0  0  0  0
 14 17  1  0  0  0  0
 16 26  1  0  0  0  0
 17 30  1  0  0  0  0
 18 19  1  0  0  0  0
 18 20  1  0  0  0  0
 18 21  1  0  0  0  0
 22 23  1  0  0  0  0
 22 24  1  0  0  0  0
 22 25  1  0  0  0  0
 26 27  1  0  0  0  0
 26 28  1  0  0  0  0
 26 29  1  0  0  0  0
 30 31  1  0  0  0  0
 30 32  1  0  0  0  0
 30 33  1  0  0  0  0
M  END
>  <IDNUMBER>
AJ-091/33874004

>  <NAME>
5,7-dimethoxy-2,2-dimethyl-2,3-dihydro-4H-chromen-4-one

>  <ADD_INFO>
http://www.specs.net/enter.php?specsid=AJ-091/33874004

>  <H_ACCEPTORS>
1

>  <H_DONORS>
0

>  <ROTATABLE_BONDS>
2

>  <LOGP>
2.6700001

>  <LOGS>
-3.21

>  <TPSA>
44.759998

>  <PRICE>
N06

$$$$
AJ-160/21107004
  MOE2011           3D

 85 90  0  0  1  0  0  0  0  0999 V2000
    3.5270   -0.2830    0.4480 C   0  0  0  0  0  0  0  0  0  0  0  0
    3.6640    0.6690   -0.5250 N   0  0  0  0  0  0  0  0  0  0  0  0
    3.0400    0.8070   -1.3110 H   0  0  0  0  0  0  0  0  0  0  0  0
    4.5500   -0.1220    1.3570 C   0  0  0  0  0  0  0  0  0  0  0  0
   -0.0040   -2.6360   -1.6850 C   0  0  1  0  0  0  0  0  0  0  0  0
    1.1160   -3.0940   -0.6940 C   0  0  2  0  0  0  0  0  0  0  0  0
    2.4190   -1.2690    0.5140 C   0  0  2  0  0  0  0  0  0  0  0  0
    2.4730   -2.0790    1.8130 N   0  3  3  0  0  0  0  0  0  0  0  0
    2.0030   -1.4790    2.5040 H   0  0  0  0  0  0  0  0  0  0  0  0
    4.7870    1.4250   -0.2780 C   0  0  0  0  0  0  0  0  0  0  0  0
    5.3640    0.9520    0.9030 C   0  0  0  0  0  0  0  0  0  0  0  0
    0.5940   -3.4120    0.7280 C   0  0  1  0  0  0  0  0  0  0  0  0
   -1.8040   -2.7720    0.1300 C   0  0  2  0  0  0  0  0  0  0  0  0
   -3.3200   -1.1740    1.0440 C   0  0  0  0  0  0  0  0  0  0  0  0
    2.3890   -2.2250   -0.6800 C   0  0  0  0  0  0  0  0  0  0  0  0
    2.5010   -1.6950   -1.6330 H   0  0  0  0  0  0  0  0  0  0  0  0
    3.2660   -2.8870   -0.6280 H   0  0  0  0  0  0  0  0  0  0  0  0
   -1.3790   -3.2120   -1.2930 C   0  0  2  0  0  0  0  0  0  0  0  0
   -4.0100    0.1080    0.7550 C   0  0  0  0  0  0  0  0  0  0  0  0
   -5.3300    2.5430    0.3040 C   0  0  0  0  0  0  0  0  0  0  0  0
   -0.1340   -1.1410   -1.9650 C   0  0  0  0  0  0  0  0  0  0  0  0
   -2.5290   -1.5280    0.0000 O   0  0  0  0  0  0  0  0  0  0  0  0
    1.7140   -3.3840    1.7730 C   0  0  0  0  0  0  0  0  0  0  0  0
    2.4380   -4.1740    1.5390 H   0  0  0  0  0  0  0  0  0  0  0  0
    1.3330   -3.5590    2.7850 H   0  0  0  0  0  0  0  0  0  0  0  0
   -5.3500    1.9540    1.5770 C   0  0  0  0  0  0  0  0  0  0  0  0
   -4.7070    1.8730   -0.7590 C   0  0  0  0  0  0  0  0  0  0  0  0
   -0.6220   -2.5640    1.0990 C   0  0  0  0  0  0  0  0  0  0  0  0
   -0.3680   -1.5010    1.1540 H   0  0  0  0  0  0  0  0  0  0  0  0
   -0.9530   -2.8280    2.1110 H   0  0  0  0  0  0  0  0  0  0  0  0
    4.6460   -0.9780    2.5670 C   0  0  0  0  0  0  0  0  0  0  0  0
    4.2060   -0.4460    3.4180 H   0  0  0  0  0  0  0  0  0  0  0  0
    5.6930   -1.1860    2.8120 H   0  0  0  0  0  0  0  0  0  0  0  0
   -4.6740    0.7520    1.8030 C   0  0  0  0  0  0  0  0  0  0  0  0
   -4.6790    0.3220    2.8030 H   0  0  0  0  0  0  0  0  0  0  0  0
   -4.0310    0.6710   -0.5260 C   0  0  0  0  0  0  0  0  0  0  0  0
   -3.5400    0.1810   -1.3620 H   0  0  0  0  0  0  0  0  0  0  0  0
    5.3270    2.4910   -1.0050 C   0  0  0  0  0  0  0  0  0  0  0  0
    4.8600    2.8440   -1.9200 H   0  0  0  0  0  0  0  0  0  0  0  0
    6.5310    1.5790    1.3780 C   0  0  0  0  0  0  0  0  0  0  0  0
    7.0080    1.2440    2.2950 H   0  0  0  0  0  0  0  0  0  0  0  0
    3.9000   -2.3040    2.3440 C   0  0  0  0  0  0  0  0  0  0  0  0
    3.8070   -2.8520    3.2880 H   0  0  0  0  0  0  0  0  0  0  0  0
    4.4170   -2.9320    1.6080 H   0  0  0  0  0  0  0  0  0  0  0  0
   -3.4480   -1.7890    2.0900 O   0  0  0  0  0  0  0  0  0  0  0  0
    0.3770   -0.2470   -1.3060 O   0  0  0  0  0  0  0  0  0  0  0  0
    6.4920    3.1000   -0.5240 C   0  0  0  0  0  0  0  0  0  0  0  0
   -5.9240    3.7600    0.0950 O   0  0  0  0  0  0  0  0  0  0  0  0
    7.0850    2.6490    0.6550 C   0  0  0  0  0  0  0  0  0  0  0  0
    7.9850    3.1080    1.0510 H   0  0  0  0  0  0  0  0  0  0  0  0
   -1.2620   -4.6440   -1.3630 O   0  0  0  0  0  0  0  0  0  0  0  0
   -0.8820   -0.9440   -3.0880 O   0  0  0  0  0  0  0  0  0  0  0  0
   -5.9440    2.5060    2.6820 O   0  0  0  0  0  0  0  0  0  0  0  0
   -4.6380    2.3300   -2.0500 O   0  0  0  0  0  0  0  0  0  0  0  0
    6.9430    4.1300   -1.3060 O   0  0  0  0  0  0  0  0  0  0  0  0
   -5.0130    4.8160    0.4090 C   0  0  0  0  0  0  0  0  0  0  0  0
   -5.5170    5.7640    0.2020 H   0  0  0  0  0  0  0  0  0  0  0  0
   -4.1170    4.7640   -0.2190 H   0  0  0  0  0  0  0  0  0  0  0  0
   -4.7370    4.8030    1.4690 H   0  0  0  0  0  0  0  0  0  0  0  0
   -2.4920   -5.2940   -1.6610 C   0  0  0  0  0  0  0  0  0  0  0  0
   -2.3170   -6.3730   -1.6580 H   0  0  0  0  0  0  0  0  0  0  0  0
   -2.8440   -5.0020   -2.6550 H   0  0  0  0  0  0  0  0  0  0  0  0
   -3.2540   -5.0640   -0.9110 H   0  0  0  0  0  0  0  0  0  0  0  0
   -5.8850    2.7810   -2.5760 C   0  0  0  0  0  0  0  0  0  0  0  0
   -5.8680    2.6090   -3.6570 H   0  0  0  0  0  0  0  0  0  0  0  0
   -5.9960    3.8570   -2.4160 H   0  0  0  0  0  0  0  0  0  0  0  0
   -6.7410    2.2330   -2.1660 H   0  0  0  0  0  0  0  0  0  0  0  0
   -7.3080    2.8690    2.4740 C   0  0  0  0  0  0  0  0  0  0  0  0
   -7.8250    2.7780    3.4340 H   0  0  0  0  0  0  0  0  0  0  0  0
   -7.8150    2.2120    1.7580 H   0  0  0  0  0  0  0  0  0  0  0  0
   -7.3790    3.9140    2.1580 H   0  0  0  0  0  0  0  0  0  0  0  0
   -1.0210    0.4260   -3.4790 C   0  0  0  0  0  0  0  0  0  0  0  0
   -1.4750    1.0120   -2.6740 H   0  0  0  0  0  0  0  0  0  0  0  0
   -1.6790    0.4640   -4.3510 H   0  0  0  0  0  0  0  0  0  0  0  0
   -0.0470    0.8400   -3.7570 H   0  0  0  0  0  0  0  0  0  0  0  0
    8.1480    4.7680   -0.9000 C   0  0  0  0  0  0  0  0  0  0  0  0
    8.3790    5.5450   -1.6350 H   0  0  0  0  0  0  0  0  0  0  0  0
    8.9840    4.0620   -0.8880 H   0  0  0  0  0  0  0  0  0  0  0  0
    8.0270    5.2560    0.0720 H   0  0  0  0  0  0  0  0  0  0  0  0
    1.4960   -0.6960    0.6020 H   0  0  0  0  0  0  0  0  0  0  0  0
    1.4540   -4.0640   -1.0930 H   0  0  0  0  0  0  0  0  0  0  0  0
    0.2400   -4.4540    0.7210 H   0  0  0  0  0  0  0  0  0  0  0  0
    0.2900   -3.0710   -2.6530 H   0  0  0  0  0  0  0  0  0  0  0  0
   -2.4760   -3.5310    0.5500 H   0  0  0  0  0  0  0  0  0  0  0  0
   -2.1320   -2.8840   -2.0230 H   0  0  0  0  0  0  0  0  0  0  0  0
  1  2  1  0  0  0  0
  1  4  2  0  0  0  0
  1  7  1  0  0  0  0
  2  3  1  0  0  0  0
  2 10  1  0  0  0  0
  4 11  1  0  0  0  0
  4 31  1  0  0  0  0
  5  6  1  0  0  0  0
  5 18  1  0  0  0  0
  5 21  1  0  0  0  0
  5 83  1  0  0  0  0
  6 12  1  0  0  0  0
  6 15  1  0  0  0  0
  6 81  1  0  0  0  0
  7  8  1  0  0  0  0
  7 15  1  0  0  0  0
  7 80  1  0  0  0  0
  8  9  1  0  0  0  0
  8 23  1  0  0  0  0
  8 42  1  0  0  0  0
 10 11  2  0  0  0  0
 10 38  1  0  0  0  0
 11 40  1  0  0  0  0
 12 23  1  0  0  0  0
 12 28  1  0  0  0  0
 12 82  1  0  0  0  0
 13 18  1  0  0  0  0
 13 22  1  0  0  0  0
 13 28  1  0  0  0  0
 13 84  1  0  0  0  0
 14 19  1  0  0  0  0
 14 22  1  0  0  0  0
 14 45  2  0  0  0  0
 15 16  1  0  0  0  0
 15 17  1  0  0  0  0
 18 51  1  0  0  0  0
 18 85  1  0  0  0  0
 19 34  1  0  0  0  0
 19 36  2  0  0  0  0
 20 26  1  0  0  0  0
 20 27  2  0  0  0  0
 20 48  1  0  0  0  0
 21 46  2  0  0  0  0
 21 52  1  0  0  0  0
 23 24  1  0  0  0  0
 23 25  1  0  0  0  0
 26 34  2  0  0  0  0
 26 53  1  0  0  0  0
 27 36  1  0  0  0  0
 27 54  1  0  0  0  0
 28 29  1  0  0  0  0
 28 30  1  0  0  0  0
 31 32  1  0  0  0  0
 31 33  1  0  0  0  0
 31 42  1  0  0  0  0
 34 35  1  0  0  0  0
 36 37  1  0  0  0  0
 38 39  1  0  0  0  0
 38 47  2  0  0  0  0
 40 41  1  0  0  0  0
 40 49  2  0  0  0  0
 42 43  1  0  0  0  0
 42 44  1  0  0  0  0
 47 49  1  0  0  0  0
 47 55  1  0  0  0  0
 48 56  1  0  0  0  0
 49 50  1  0  0  0  0
 51 60  1  0  0  0  0
 52 72  1  0  0  0  0
 53 68  1  0  0  0  0
 54 64  1  0  0  0  0
 55 76  1  0  0  0  0
 56 57  1  0  0  0  0
 56 58  1  0  0  0  0
 56 59  1  0  0  0  0
 60 61  1  0  0  0  0
 60 62  1  0  0  0  0
 60 63  1  0  0  0  0
 64 65  1  0  0  0  0
 64 66  1  0  0  0  0
 64 67  1  0  0  0  0
 68 69  1  0  0  0  0
 68 70  1  0  0  0  0
 68 71  1  0  0  0  0
 72 73  1  0  0  0  0
 72 74  1  0  0  0  0
 72 75  1  0  0  0  0
 76 77  1  0  0  0  0
 76 78  1  0  0  0  0
 76 79  1  0  0  0  0
M  CHG  1   8   1
M  END
>  <IDNUMBER>
AJ-160/21107004

>  <NAME>
Reserpine

>  <ADD_INFO>
http://www.specs.net/enter.php?specsid=AJ-160/21107004

>  <H_ACCEPTORS>
7

>  <H_DONORS>
1

>  <ROTATABLE_BONDS>
10

>  <LOGP>
3.3199999

>  <LOGS>
-5.4699998

>  <TPSA>
117.78

>  <PRICE>
N06

>  <STEREOCHEM>
(-)-isomer

$$$$
AJ-291/34003002
  MOE2011           3D

 25 26  0  0  0  0  0  0  0  0999 V2000
   -3.2550   -0.2450   -0.1380 C   0  0  0  0  0  0  0  0  0  0  0  0
   -2.3860    0.9480   -0.1150 C   0  0  0  0  0  0  0  0  0  0  0  0
   -0.9440    0.7100   -0.3190 C   0  0  0  0  0  0  0  0  0  0  0  0
   -0.4980   -0.5980   -0.5250 C   0  0  0  0  0  0  0  0  0  0  0  0
   -1.3470   -1.6770   -0.5440 O   0  0  0  0  0  0  0  0  0  0  0  0
   -2.6870   -1.4390   -0.3450 C   0  0  0  0  0  0  0  0  0  0  0  0
   -3.2350   -2.3730   -0.3810 H   0  0  0  0  0  0  0  0  0  0  0  0
    0.8580   -0.8530   -0.7250 C   0  0  0  0  0  0  0  0  0  0  0  0
    1.2090   -1.8650   -0.9020 H   0  0  0  0  0  0  0  0  0  0  0  0
   -0.0380    1.7780   -0.3150 C   0  0  0  0  0  0  0  0  0  0  0  0
   -0.3860    2.7980   -0.1660 H   0  0  0  0  0  0  0  0  0  0  0  0
    4.0010   -0.4060    0.0610 C   0  0  0  0  0  0  0  0  0  0  0  0
   -2.8390    2.0700    0.0660 O   0  0  0  0  0  0  0  0  0  0  0  0
    1.7520    0.2160   -0.6980 C   0  0  0  0  0  0  0  0  0  0  0  0
   -4.7190   -0.1530    0.0580 C   0  0  0  0  0  0  0  0  0  0  0  0
   -5.1110    0.8660    0.2090 H   0  0  0  0  0  0  0  0  0  0  0  0
    3.1180   -0.0220   -0.9470 O   0  0  0  0  0  0  0  0  0  0  0  0
    5.1680   -0.6920   -0.1910 O   0  0  0  0  0  0  0  0  0  0  0  0
   -5.4590   -1.1300    0.0590 O   0  0  0  0  0  0  0  0  0  0  0  0
    1.3210    1.5300   -0.5130 C   0  0  0  0  0  0  0  0  0  0  0  0
    2.0310    2.3520   -0.5270 H   0  0  0  0  0  0  0  0  0  0  0  0
    3.4460   -0.4430    1.4570 C   0  0  0  0  0  0  0  0  0  0  0  0
    3.0660    0.5400    1.7460 H   0  0  0  0  0  0  0  0  0  0  0  0
    4.2540   -0.7000    2.1500 H   0  0  0  0  0  0  0  0  0  0  0  0
    2.6760   -1.2130    1.5460 H   0  0  0  0  0  0  0  0  0  0  0  0
  1  2  1  0  0  0  0
  1  6  2  0  0  0  0
  1 15  1  0  0  0  0
  2  3  1  0  0  0  0
  2 13  2  0  0  0  0
  3  4  2  0  0  0  0
  3 10  1  0  0  0  0
  4  5  1  0  0  0  0
  4  8  1  0  0  0  0
  5  6  1  0  0  0  0
  6  7  1  0  0  0  0
  8  9  1  0  0  0  0
  8 14  2  0  0  0  0
 10 11  1  0  0  0  0
 10 20  2  0  0  0  0
 12 17  1  0  0  0  0
 12 18  2  0  0  0  0
 12 22  1  0  0  0  0
 14 17  1  0  0  0  0
 14 20  1  0  0  0  0
 15 16  1  0  0  0  0
 15 19  2  0  0  0  0
 20 21  1  0  0  0  0
 22 23  1  0  0  0  0
 22 24  1  0  0  0  0
 22 25  1  0  0  0  0
M  END
>  <IDNUMBER>
AJ-291/34003002

>  <NAME>
3-formyl-4-oxo-4H-chromen-7-yl acetate

>  <ADD_INFO>
http://www.specs.net/enter.php?specsid=AJ-291/34003002

>  <H_ACCEPTORS>
3

>  <H_DONORS>
0

>  <ROTATABLE_BONDS>
3

>  <LOGP>
0.40000001

>  <LOGS>
-1.23

>  <TPSA>
69.669998

>  <PRICE>
N05

$$$$
AJ-292/21168048
  MOE2011           3D

 51 53  0  0  1  0  0  0  0  0999 V2000
   -3.2860    0.0490    0.5860 N   0  3  3  0  0  0  0  0  0  0  0  0
   -3.3280   -0.8490    1.0860 H   0  0  0  0  0  0  0  0  0  0  0  0
    1.8890   -1.4850    1.2300 C   0  0  0  0  0  0  0  0  0  0  0  0
   -1.8680    0.1830    0.0560 C   0  0  3  0  0  0  0  0  0  0  0  0
    3.0680   -0.8440    0.5930 C   0  0  0  0  0  0  0  0  0  0  0  0
    1.8070   -1.7140    2.4260 O   0  0  0  0  0  0  0  0  0  0  0  0
    4.1150   -0.4170    1.4180 C   0  0  0  0  0  0  0  0  0  0  0  0
    4.0620   -0.5580    2.4970 H   0  0  0  0  0  0  0  0  0  0  0  0
    3.1640   -0.6550   -0.7900 C   0  0  0  0  0  0  0  0  0  0  0  0
    2.3740   -0.9800   -1.4620 H   0  0  0  0  0  0  0  0  0  0  0  0
   -1.5590   -0.9600   -0.9340 C   0  0  1  0  0  0  0  0  0  0  0  0
    0.9320   -1.7490    0.3040 O   0  0  0  0  0  0  0  0  0  0  0  0
    5.3440    0.3840   -0.5100 C   0  0  0  0  0  0  0  0  0  0  0  0
    4.2980   -0.0440   -1.3330 C   0  0  0  0  0  0  0  0  0  0  0  0
    4.3730    0.0960   -2.4090 H   0  0  0  0  0  0  0  0  0  0  0  0
    5.2480    0.1960    0.8690 C   0  0  0  0  0  0  0  0  0  0  0  0
    6.0350    0.5120    1.5470 H   0  0  0  0  0  0  0  0  0  0  0  0
   -4.3530   -0.0330   -0.4830 C   0  0  0  0  0  0  0  0  0  0  0  0
   -5.3090   -0.2000    0.0240 H   0  0  0  0  0  0  0  0  0  0  0  0
   -4.3920    0.9220   -1.0140 H   0  0  0  0  0  0  0  0  0  0  0  0
   -3.5880    1.0940    1.6400 C   0  0  0  0  0  0  0  0  0  0  0  0
   -4.6200    0.9420    1.9740 H   0  0  0  0  0  0  0  0  0  0  0  0
   -2.9200    0.8880    2.4830 H   0  0  0  0  0  0  0  0  0  0  0  0
   -0.2510   -2.3690    0.8190 C   0  0  0  0  0  0  0  0  0  0  0  0
   -0.0230   -3.4100    1.0780 H   0  0  0  0  0  0  0  0  0  0  0  0
   -0.5940   -1.8550    1.7250 H   0  0  0  0  0  0  0  0  0  0  0  0
    6.3910    0.9640   -1.1730 O   0  0  0  0  0  0  0  0  0  0  0  0
   -4.0490   -1.1790   -1.4340 C   0  0  0  0  0  0  0  0  0  0  0  0
   -4.1720   -2.1350   -0.9130 H   0  0  0  0  0  0  0  0  0  0  0  0
   -4.7830   -1.1770   -2.2490 H   0  0  0  0  0  0  0  0  0  0  0  0
   -1.6710    1.5850   -0.5390 C   0  0  0  0  0  0  0  0  0  0  0  0
   -0.6320    1.6980   -0.8710 H   0  0  0  0  0  0  0  0  0  0  0  0
   -2.2970    1.7380   -1.4240 H   0  0  0  0  0  0  0  0  0  0  0  0
   -1.3460   -2.3360   -0.2480 C   0  0  0  0  0  0  0  0  0  0  0  0
   -1.0690   -3.0530   -1.0310 H   0  0  0  0  0  0  0  0  0  0  0  0
   -2.2750   -2.7060    0.1990 H   0  0  0  0  0  0  0  0  0  0  0  0
   -2.6450   -1.0760   -2.0200 C   0  0  0  0  0  0  0  0  0  0  0  0
   -2.5960   -0.2000   -2.6780 H   0  0  0  0  0  0  0  0  0  0  0  0
   -2.4500   -1.9460   -2.6590 H   0  0  0  0  0  0  0  0  0  0  0  0
    7.5020    1.3790   -0.3880 C   0  0  0  0  0  0  0  0  0  0  0  0
    8.2510    1.8000   -1.0650 H   0  0  0  0  0  0  0  0  0  0  0  0
    7.9600    0.5290    0.1290 H   0  0  0  0  0  0  0  0  0  0  0  0
    7.2130    2.1630    0.3200 H   0  0  0  0  0  0  0  0  0  0  0  0
   -3.3700    2.4990    1.0960 C   0  0  0  0  0  0  0  0  0  0  0  0
   -4.1290    2.7340    0.3410 H   0  0  0  0  0  0  0  0  0  0  0  0
   -3.5050    3.2260    1.9050 H   0  0  0  0  0  0  0  0  0  0  0  0
   -1.9810    2.6710    0.4900 C   0  0  0  0  0  0  0  0  0  0  0  0
   -1.2310    2.6360    1.2900 H   0  0  0  0  0  0  0  0  0  0  0  0
   -1.9000    3.6590    0.0220 H   0  0  0  0  0  0  0  0  0  0  0  0
   -1.2160    0.1030    0.9330 H   0  0  0  0  0  0  0  0  0  0  0  0
   -0.6190   -0.7150   -1.4490 H   0  0  0  0  0  0  0  0  0  0  0  0
  1  2  1  0  0  0  0
  1  4  1  0  0  0  0
  1 18  1  0  0  0  0
  1 21  1  0  0  0  0
  3  5  1  0  0  0  0
  3  6  2  0  0  0  0
  3 12  1  0  0  0  0
  4 11  1  0  0  0  0
  4 31  1  0  0  0  0
  4 50  1  0  0  0  0
  5  7  2  0  0  0  0
  5  9  1  0  0  0  0
  7  8  1  0  0  0  0
  7 16  1  0  0  0  0
  9 10  1  0  0  0  0
  9 14  2  0  0  0  0
 11 34  1  0  0  0  0
 11 37  1  0  0  0  0
 11 51  1  0  0  0  0
 12 24  1  0  0  0  0
 13 14  1  0  0  0  0
 13 16  2  0  0  0  0
 13 27  1  0  0  0  0
 14 15  1  0  0  0  0
 16 17  1  0  0  0  0
 18 19  1  0  0  0  0
 18 20  1  0  0  0  0
 18 28  1  0  0  0  0
 21 22  1  0  0  0  0
 21 23  1  0  0  0  0
 21 44  1  0  0  0  0
 24 25  1  0  0  0  0
 24 26  1  0  0  0  0
 24 34  1  0  0  0  0
 27 40  1  0  0  0  0
 28 29  1  0  0  0  0
 28 30  1  0  0  0  0
 28 37  1  0  0  0  0
 31 32  1  0  0  0  0
 31 33  1  0  0  0  0
 31 47  1  0  0  0  0
 34 35  1  0  0  0  0
 34 36  1  0  0  0  0
 37 38  1  0  0  0  0
 37 39  1  0  0  0  0
 40 41  1  0  0  0  0
 40 42  1  0  0  0  0
 40 43  1  0  0  0  0
 44 45  1  0  0  0  0
 44 46  1  0  0  0  0
 44 47  1  0  0  0  0
 47 48  1  0  0  0  0
 47 49  1  0  0  0  0
M  CHG  1   1   1
M  END
>  <IDNUMBER>
AJ-292/21168048

>  <NAME>
O-4-Methoxybenzoylhomoepilupinine hydrochloride

>  <ADD_INFO>
http://www.specs.net/enter.php?specsid=AJ-292/21168048

>  <H_ACCEPTORS>
3

>  <H_DONORS>
0

>  <ROTATABLE_BONDS>
6

>  <LOGP>
4.6700001

>  <LOGS>
-4.5

>  <TPSA>
38.77

>  <PRICE>
N07

$$$$
AJ-652/21105007
  MOE2011           3D

 73 77  0  0  1  0  0  0  0  0999 V2000
    0.3260   -1.7510   -0.6510 C   0  0  0  0  0  0  0  0  0  0  0  0
    0.1240   -1.8530    0.6860 C   0  0  0  0  0  0  0  0  0  0  0  0
   -0.8210   -2.1590   -1.5190 C   0  0  0  0  0  0  0  0  0  0  0  0
   -2.0470   -2.6340   -0.8850 C   0  0  0  0  0  0  0  0  0  0  0  0
    2.5250   -0.6090   -0.8810 C   0  0  2  0  0  0  0  0  0  0  0  0
   -1.0700   -2.2510    1.2810 O   0  0  0  0  0  0  0  0  0  0  0  0
   -2.1110   -2.6580    0.4970 C   0  0  0  0  0  0  0  0  0  0  0  0
    3.7130   -0.7870   -1.8500 C   0  0  1  0  0  0  0  0  0  0  0  0
   -0.4750    3.5780    1.1370 C   0  0  2  0  0  0  0  0  0  0  0  0
    1.4270   -1.3720   -1.3720 O   0  0  0  0  0  0  0  0  0  0  0  0
    3.9160    0.4220   -2.7650 C   0  0  2  0  0  0  0  0  0  0  0  0
   -1.8320    4.2100    0.8540 C   0  0  1  0  0  0  0  0  0  0  0  0
    2.2150    0.7700   -0.6740 O   0  0  0  0  0  0  0  0  0  0  0  0
   -0.2670    2.3420    0.2490 C   0  0  1  0  0  0  0  0  0  0  0  0
    2.5880    1.0680   -3.1220 C   0  0  2  0  0  0  0  0  0  0  0  0
   -3.1370   -3.0610   -1.6510 C   0  0  0  0  0  0  0  0  0  0  0  0
   -1.3600    1.4190    0.3600 O   0  0  0  0  0  0  0  0  0  0  0  0
    1.9120    1.5630   -1.8360 C   0  0  1  0  0  0  0  0  0  0  0  0
   -2.9530    3.1710    0.9320 C   0  0  2  0  0  0  0  0  0  0  0  0
    1.1410   -1.6530    1.7280 C   0  0  0  0  0  0  0  0  0  0  0  0
   -2.6250    1.9890    0.0130 C   0  0  2  0  0  0  0  0  0  0  0  0
   -3.2660   -3.1150    1.1340 C   0  0  0  0  0  0  0  0  0  0  0  0
   -3.3060   -3.1330    2.2190 H   0  0  0  0  0  0  0  0  0  0  0  0
   -4.2930   -3.5170   -1.0290 C   0  0  0  0  0  0  0  0  0  0  0  0
   -5.1410   -3.8530   -1.6180 H   0  0  0  0  0  0  0  0  0  0  0  0
    2.1290   -2.6280    1.9290 C   0  0  0  0  0  0  0  0  0  0  0  0
    2.1710   -3.5190    1.3080 H   0  0  0  0  0  0  0  0  0  0  0  0
    3.0650   -2.4530    2.9380 C   0  0  0  0  0  0  0  0  0  0  0  0
   -0.0780    2.7830   -1.0960 O   0  0  0  0  0  0  0  0  0  0  0  0
   -0.7850   -2.1380   -2.7490 O   0  0  0  0  0  0  0  0  0  0  0  0
   -4.3470   -3.5450    0.3630 C   0  0  0  0  0  0  0  0  0  0  0  0
    0.3980    1.7650   -1.9870 C   0  0  0  0  0  0  0  0  0  0  0  0
   -0.1690    0.8420   -1.8410 H   0  0  0  0  0  0  0  0  0  0  0  0
    0.1770    2.1380   -2.9930 H   0  0  0  0  0  0  0  0  0  0  0  0
    3.0300   -1.3260    3.7540 C   0  0  0  0  0  0  0  0  0  0  0  0
    1.0840   -0.5380    2.5810 C   0  0  0  0  0  0  0  0  0  0  0  0
    0.3000    0.2070    2.4620 H   0  0  0  0  0  0  0  0  0  0  0  0
    2.0340   -0.3720    3.5940 C   0  0  0  0  0  0  0  0  0  0  0  0
    1.9980    0.4990    4.2400 H   0  0  0  0  0  0  0  0  0  0  0  0
    4.9330   -0.9640   -1.1050 O   0  0  0  0  0  0  0  0  0  0  0  0
    5.6290   -1.1300   -1.7680 H   0  0  0  0  0  0  0  0  0  0  0  0
   -0.4060    3.2290    2.5280 O   0  0  0  0  0  0  0  0  0  0  0  0
   -0.7800    4.0080    2.9900 H   0  0  0  0  0  0  0  0  0  0  0  0
    4.5710   -0.0280   -3.9590 O   0  0  0  0  0  0  0  0  0  0  0  0
    4.8550    0.7610   -4.4550 H   0  0  0  0  0  0  0  0  0  0  0  0
   -2.0780    5.2360    1.8300 O   0  0  0  0  0  0  0  0  0  0  0  0
   -2.9980    5.5230    1.6570 H   0  0  0  0  0  0  0  0  0  0  0  0
   -3.1030   -3.0470   -3.0220 O   0  0  0  0  0  0  0  0  0  0  0  0
   -2.2150   -2.6910   -3.2790 H   0  0  0  0  0  0  0  0  0  0  0  0
    1.7720    0.1280   -3.8190 O   0  0  0  0  0  0  0  0  0  0  0  0
    2.3430   -0.3060   -4.4820 H   0  0  0  0  0  0  0  0  0  0  0  0
   -4.1640    3.8290    0.5520 O   0  0  0  0  0  0  0  0  0  0  0  0
   -4.9050    3.2310    0.7530 H   0  0  0  0  0  0  0  0  0  0  0  0
    4.0030   -3.4260    3.1190 O   0  0  0  0  0  0  0  0  0  0  0  0
    4.3010   -3.3570    4.0430 H   0  0  0  0  0  0  0  0  0  0  0  0
    3.9840   -1.1370    4.7130 O   0  0  0  0  0  0  0  0  0  0  0  0
    4.8400   -1.1910    4.2500 H   0  0  0  0  0  0  0  0  0  0  0  0
   -5.4920   -4.0110    0.9420 O   0  0  0  0  0  0  0  0  0  0  0  0
   -5.3840   -4.0170    1.9080 H   0  0  0  0  0  0  0  0  0  0  0  0
   -3.6670    0.8810    0.1170 C   0  0  0  0  0  0  0  0  0  0  0  0
   -4.6650    1.2300   -0.1610 H   0  0  0  0  0  0  0  0  0  0  0  0
   -3.7050    0.4710    1.1330 H   0  0  0  0  0  0  0  0  0  0  0  0
   -3.4010    0.0540   -0.5480 H   0  0  0  0  0  0  0  0  0  0  0  0
    2.8570   -1.0020    0.0760 H   0  0  0  0  0  0  0  0  0  0  0  0
    3.5860   -1.7090   -2.4320 H   0  0  0  0  0  0  0  0  0  0  0  0
    0.3160    4.3160    0.9600 H   0  0  0  0  0  0  0  0  0  0  0  0
    4.5830    1.1540   -2.2910 H   0  0  0  0  0  0  0  0  0  0  0  0
   -1.8340    4.6960   -0.1290 H   0  0  0  0  0  0  0  0  0  0  0  0
    0.6210    1.8270    0.6160 H   0  0  0  0  0  0  0  0  0  0  0  0
    2.7340    1.9050   -3.8140 H   0  0  0  0  0  0  0  0  0  0  0  0
    2.3550    2.5390   -1.5990 H   0  0  0  0  0  0  0  0  0  0  0  0
   -3.0720    2.8410    1.9720 H   0  0  0  0  0  0  0  0  0  0  0  0
   -2.6040    2.3180   -1.0340 H   0  0  0  0  0  0  0  0  0  0  0  0
  1  2  2  0  0  0  0
  1  3  1  0  0  0  0
  1 10  1  0  0  0  0
  2  6  1  0  0  0  0
  2 20  1  0  0  0  0
  3  4  1  0  0  0  0
  3 30  2  0  0  0  0
  4  7  2  0  0  0  0
  4 16  1  0  0  0  0
  5  8  1  0  0  0  0
  5 10  1  0  0  0  0
  5 13  1  0  0  0  0
  5 64  1  0  0  0  0
  6  7  1  0  0  0  0
  7 22  1  0  0  0  0
  8 11  1  0  0  0  0
  8 40  1  0  0  0  0
  8 65  1  0  0  0  0
  9 12  1  0  0  0  0
  9 14  1  0  0  0  0
  9 42  1  0  0  0  0
  9 66  1  0  0  0  0
 11 15  1  0  0  0  0
 11 44  1  0  0  0  0
 11 67  1  0  0  0  0
 12 19  1  0  0  0  0
 12 46  1  0  0  0  0
 12 68  1  0  0  0  0
 13 18  1  0  0  0  0
 14 17  1  0  0  0  0
 14 29  1  0  0  0  0
 14 69  1  0  0  0  0
 15 18  1  0  0  0  0
 15 50  1  0  0  0  0
 15 70  1  0  0  0  0
 16 24  2  0  0  0  0
 16 48  1  0  0  0  0
 17 21  1  0  0  0  0
 18 32  1  0  0  0  0
 18 71  1  0  0  0  0
 19 21  1  0  0  0  0
 19 52  1  0  0  0  0
 19 72  1  0  0  0  0
 20 26  2  0  0  0  0
 20 36  1  0  0  0  0
 21 60  1  0  0  0  0
 21 73  1  0  0  0  0
 22 23  1  0  0  0  0
 22 31  2  0  0  0  0
 24 25  1  0  0  0  0
 24 31  1  0  0  0  0
 26 27  1  0  0  0  0
 26 28  1  0  0  0  0
 28 35  2  0  0  0  0
 28 54  1  0  0  0  0
 29 32  1  0  0  0  0
 31 58  1  0  0  0  0
 32 33  1  0  0  0  0
 32 34  1  0  0  0  0
 35 38  1  0  0  0  0
 35 56  1  0  0  0  0
 36 37  1  0  0  0  0
 36 38  2  0  0  0  0
 38 39  1  0  0  0  0
 40 41  1  0  0  0  0
 42 43  1  0  0  0  0
 44 45  1  0  0  0  0
 46 47  1  0  0  0  0
 48 49  1  0  0  0  0
 50 51  1  0  0  0  0
 52 53  1  0  0  0  0
 54 55  1  0  0  0  0
 56 57  1  0  0  0  0
 58 59  1  0  0  0  0
 60 61  1  0  0  0  0
 60 62  1  0  0  0  0
 60 63  1  0  0  0  0
M  END
>  <IDNUMBER>
AJ-652/21105007

>  <NAME>
Rutin

>  <ADD_INFO>
http://www.specs.net/enter.php?specsid=AJ-652/21105007

>  <H_ACCEPTORS>
11

>  <H_DONORS>
10

>  <ROTATABLE_BONDS>
6

>  <LOGP>
-0.25

>  <LOGS>
-2.8599999

>  <TPSA>
265.51999

>  <PRICE>
N07

$$$$
AJ-738/20210002
  MOE2011           3D

 87 93  0  0  1  0  0  0  0  0999 V2000
   -2.4800   -1.7930   -0.1920 C   0  0  2  0  0  0  0  0  0  0  0  0
   -2.1960   -1.2490    1.2520 C   0  0  1  0  0  0  0  0  0  0  0  0
   -0.9110    0.2250   -1.0240 C   0  0  3  0  0  0  0  0  0  0  0  0
   -1.0510    0.8610    0.3650 C   0  0  1  0  0  0  0  0  0  0  0  0
   -0.9120   -0.3640    1.2860 C   0  0  3  0  0  0  0  0  0  0  0  0
   -2.1650   -0.7160   -1.2760 C   0  0  3  0  0  0  0  0  0  0  0  0
    0.3960   -0.5870   -0.7590 C   0  0  3  0  0  0  0  0  0  0  0  0
    1.6270    0.3500   -0.8020 C   0  0  2  0  0  0  0  0  0  0  0  0
    0.0520    1.8960    0.5660 N   0  3  2  0  0  0  0  0  0  0  0  0
   -0.1750    2.6060   -0.1490 H   0  0  0  0  0  0  0  0  0  0  0  0
   -3.9830   -2.0750   -0.4150 C   0  0  2  0  0  0  0  0  0  0  0  0
   -4.5070   -0.6400   -0.4830 C   0  0  3  0  0  0  0  0  0  0  0  0
    4.0110    0.0510   -0.3960 C   0  0  0  0  0  0  0  0  0  0  0  0
   -3.4230   -0.5210    1.8630 C   0  0  0  0  0  0  0  0  0  0  0  0
   -3.9630   -1.2220    2.5190 H   0  0  0  0  0  0  0  0  0  0  0  0
   -3.0930    0.2580    2.5640 H   0  0  0  0  0  0  0  0  0  0  0  0
    5.0680   -0.9890   -0.4660 C   0  0  0  0  0  0  0  0  0  0  0  0
    0.2710   -1.1420    0.6840 C   0  0  0  0  0  0  0  0  0  0  0  0
    1.1720   -0.9820    1.2860 H   0  0  0  0  0  0  0  0  0  0  0  0
    0.1450   -2.2270    0.6920 H   0  0  0  0  0  0  0  0  0  0  0  0
   -3.5240    0.0010   -1.4750 C   0  0  0  0  0  0  0  0  0  0  0  0
   -3.5000    1.0820   -1.3480 H   0  0  0  0  0  0  0  0  0  0  0  0
   -3.8700   -0.1850   -2.5000 H   0  0  0  0  0  0  0  0  0  0  0  0
    2.7900   -0.5100   -0.5910 O   0  0  0  0  0  0  0  0  0  0  0  0
    1.4910    1.4440    0.3030 C   0  0  0  0  0  0  0  0  0  0  0  0
    2.0460    2.3480    0.0320 H   0  0  0  0  0  0  0  0  0  0  0  0
    1.8820    1.0860    1.2590 H   0  0  0  0  0  0  0  0  0  0  0  0
   -4.4360    0.0930    0.8790 C   0  0  2  0  0  0  0  0  0  0  0  0
    6.2960   -0.8710    0.2140 C   0  0  0  0  0  0  0  0  0  0  0  0
    6.6130    0.0530    1.2320 N   0  0  0  0  0  0  0  0  0  0  0  0
    7.5700    0.3950    1.2530 H   0  0  0  0  0  0  0  0  0  0  0  0
   -0.8070    1.2450   -2.2140 C   0  0  3  0  0  0  0  0  0  0  0  0
    5.8550    0.5710    2.2450 C   0  0  0  0  0  0  0  0  0  0  0  0
    1.7310    0.9180   -2.2200 C   0  0  0  0  0  0  0  0  0  0  0  0
    2.6680    1.4710   -2.3530 H   0  0  0  0  0  0  0  0  0  0  0  0
    1.7820    0.0940   -2.9450 H   0  0  0  0  0  0  0  0  0  0  0  0
    4.2180    1.2380   -0.2130 O   0  0  0  0  0  0  0  0  0  0  0  0
   -1.6980   -2.9470   -0.5040 O   0  0  0  0  0  0  0  0  0  0  0  0
   -2.0740   -3.3930   -1.2810 H   0  0  0  0  0  0  0  0  0  0  0  0
   -1.9430   -2.3630    2.1370 O   0  0  0  0  0  0  0  0  0  0  0  0
   -1.7210   -2.0200    3.0190 H   0  0  0  0  0  0  0  0  0  0  0  0
    6.2820    1.5300    2.8940 O   0  0  0  0  0  0  0  0  0  0  0  0
    0.5730    1.8250   -2.5530 C   0  0  0  0  0  0  0  0  0  0  0  0
    0.6070    2.0590   -3.6250 H   0  0  0  0  0  0  0  0  0  0  0  0
    0.7190    2.7950   -2.0610 H   0  0  0  0  0  0  0  0  0  0  0  0
   -4.6540   -2.8090    0.5950 O   0  0  0  0  0  0  0  0  0  0  0  0
   -0.0910    2.6350    1.8870 C   0  0  0  0  0  0  0  0  0  0  0  0
   -1.1600    2.8110    2.0460 H   0  0  0  0  0  0  0  0  0  0  0  0
    0.2920    1.9900    2.6840 H   0  0  0  0  0  0  0  0  0  0  0  0
   -5.7120    0.0800    1.5380 O   0  0  0  0  0  0  0  0  0  0  0  0
    4.8950   -2.0150   -1.4170 C   0  0  0  0  0  0  0  0  0  0  0  0
    3.9620   -2.1170   -1.9700 H   0  0  0  0  0  0  0  0  0  0  0  0
   -1.6540    2.3650   -1.8970 O   0  0  0  0  0  0  0  0  0  0  0  0
    7.3480   -1.7270   -0.1480 C   0  0  0  0  0  0  0  0  0  0  0  0
    8.3180   -1.6460    0.3390 H   0  0  0  0  0  0  0  0  0  0  0  0
    4.5690   -0.0990    2.6480 C   0  0  0  0  0  0  0  0  0  0  0  0
    4.4440   -1.0880    2.2060 H   0  0  0  0  0  0  0  0  0  0  0  0
    3.7260    0.5430    2.3920 H   0  0  0  0  0  0  0  0  0  0  0  0
    4.5800   -0.2340    3.7340 H   0  0  0  0  0  0  0  0  0  0  0  0
   -4.3360   -4.1930    0.6150 C   0  0  0  0  0  0  0  0  0  0  0  0
   -4.9880   -4.6800    1.3460 H   0  0  0  0  0  0  0  0  0  0  0  0
   -3.3010   -4.3560    0.9240 H   0  0  0  0  0  0  0  0  0  0  0  0
   -4.5150   -4.6460   -0.3640 H   0  0  0  0  0  0  0  0  0  0  0  0
   -6.6100    1.0760    1.0670 C   0  0  0  0  0  0  0  0  0  0  0  0
   -7.5530    0.9710    1.6110 H   0  0  0  0  0  0  0  0  0  0  0  0
   -6.8120    0.9600   -0.0010 H   0  0  0  0  0  0  0  0  0  0  0  0
   -6.2080    2.0740    1.2650 H   0  0  0  0  0  0  0  0  0  0  0  0
   -2.1110    3.0760   -3.0460 C   0  0  0  0  0  0  0  0  0  0  0  0
   -2.7840    3.8690   -2.7070 H   0  0  0  0  0  0  0  0  0  0  0  0
   -2.6680    2.4090   -3.7110 H   0  0  0  0  0  0  0  0  0  0  0  0
   -1.2770    3.5360   -3.5810 H   0  0  0  0  0  0  0  0  0  0  0  0
    0.6390    3.9650    1.8410 C   0  0  0  0  0  0  0  0  0  0  0  0
    0.3100    4.5710    0.9910 H   0  0  0  0  0  0  0  0  0  0  0  0
    1.7220    3.8310    1.7710 H   0  0  0  0  0  0  0  0  0  0  0  0
    0.4380    4.5310    2.7560 H   0  0  0  0  0  0  0  0  0  0  0  0
    5.9340   -2.8940   -1.7150 C   0  0  0  0  0  0  0  0  0  0  0  0
    5.7930   -3.6780   -2.4540 H   0  0  0  0  0  0  0  0  0  0  0  0
    7.1670   -2.7380   -1.0930 C   0  0  0  0  0  0  0  0  0  0  0  0
    7.9880   -3.4080   -1.3380 H   0  0  0  0  0  0  0  0  0  0  0  0
   -1.9890    1.3990    0.5000 H   0  0  0  0  0  0  0  0  0  0  0  0
   -0.6850   -0.0920    2.3230 H   0  0  0  0  0  0  0  0  0  0  0  0
   -1.9470   -1.2460   -2.2160 H   0  0  0  0  0  0  0  0  0  0  0  0
    0.5200   -1.4140   -1.4690 H   0  0  0  0  0  0  0  0  0  0  0  0
   -4.1500   -2.5760   -1.3790 H   0  0  0  0  0  0  0  0  0  0  0  0
   -5.5270   -0.6250   -0.8780 H   0  0  0  0  0  0  0  0  0  0  0  0
   -4.1650    1.1450    0.7290 H   0  0  0  0  0  0  0  0  0  0  0  0
   -1.1810    0.7450   -3.1180 H   0  0  0  0  0  0  0  0  0  0  0  0
  1  2  1  0  0  0  0
  1  6  1  0  0  0  0
  1 11  1  0  0  0  0
  1 38  1  0  0  0  0
  2  5  1  0  0  0  0
  2 14  1  0  0  0  0
  2 40  1  0  0  0  0
  3  4  1  0  0  0  0
  3  6  1  0  0  0  0
  3  7  1  0  0  0  0
  3 32  1  0  0  0  0
  4  5  1  0  0  0  0
  4  9  1  0  0  0  0
  4 80  1  0  0  0  0
  5 18  1  0  0  0  0
  5 81  1  0  0  0  0
  6 21  1  0  0  0  0
  6 82  1  0  0  0  0
  7  8  1  0  0  0  0
  7 18  1  0  0  0  0
  7 83  1  0  0  0  0
  8 24  1  0  0  0  0
  8 25  1  0  0  0  0
  8 34  1  0  0  0  0
  9 10  1  0  0  0  0
  9 25  1  0  0  0  0
  9 47  1  0  0  0  0
 11 12  1  0  0  0  0
 11 46  1  0  0  0  0
 11 84  1  0  0  0  0
 12 21  1  0  0  0  0
 12 28  1  0  0  0  0
 12 85  1  0  0  0  0
 13 17  1  0  0  0  0
 13 24  1  0  0  0  0
 13 37  2  0  0  0  0
 14 15  1  0  0  0  0
 14 16  1  0  0  0  0
 14 28  1  0  0  0  0
 17 29  2  0  0  0  0
 17 51  1  0  0  0  0
 18 19  1  0  0  0  0
 18 20  1  0  0  0  0
 21 22  1  0  0  0  0
 21 23  1  0  0  0  0
 25 26  1  0  0  0  0
 25 27  1  0  0  0  0
 28 50  1  0  0  0  0
 28 86  1  0  0  0  0
 29 30  1  0  0  0  0
 29 54  1  0  0  0  0
 30 31  1  0  0  0  0
 30 33  1  0  0  0  0
 32 43  1  0  0  0  0
 32 53  1  0  0  0  0
 32 87  1  0  0  0  0
 33 42  2  0  0  0  0
 33 56  1  0  0  0  0
 34 35  1  0  0  0  0
 34 36  1  0  0  0  0
 34 43  1  0  0  0  0
 38 39  1  0  0  0  0
 40 41  1  0  0  0  0
 43 44  1  0  0  0  0
 43 45  1  0  0  0  0
 46 60  1  0  0  0  0
 47 48  1  0  0  0  0
 47 49  1  0  0  0  0
 47 72  1  0  0  0  0
 50 64  1  0  0  0  0
 51 52  1  0  0  0  0
 51 76  2  0  0  0  0
 53 68  1  0  0  0  0
 54 55  1  0  0  0  0
 54 78  2  0  0  0  0
 56 57  1  0  0  0  0
 56 58  1  0  0  0  0
 56 59  1  0  0  0  0
 60 61  1  0  0  0  0
 60 62  1  0  0  0  0
 60 63  1  0  0  0  0
 64 65  1  0  0  0  0
 64 66  1  0  0  0  0
 64 67  1  0  0  0  0
 68 69  1  0  0  0  0
 68 70  1  0  0  0  0
 68 71  1  0  0  0  0
 72 73  1  0  0  0  0
 72 74  1  0  0  0  0
 72 75  1  0  0  0  0
 76 77  1  0  0  0  0
 76 78  1  0  0  0  0
 78 79  1  0  0  0  0
M  CHG  1   9   1
M  END
>  <IDNUMBER>
AJ-738/20210002

>  <NAME>
(1R,3S,4S,5S,8S,9R,10S,13S)-11-ethyl-3,8-dihydroxy-4,6,16-trimethoxy-11-azahexacyclo[7.7.2.1~2,5~.0~1,10~.0~3,8~.0~13,17~]nonadec-13-yl 2-(acetylamino)benzoate

>  <ADD_INFO>
http://www.specs.net/enter.php?specsid=AJ-738/20210002

>  <H_ACCEPTORS>
10

>  <H_DONORS>
3

>  <ROTATABLE_BONDS>
9

>  <LOGP>
1.39

>  <LOGS>
-4.6399999

>  <TPSA>
126.79

>  <PRICE>
N07

$$$$
AJ-738/21061002
  MOE2011           3D

 68 73  0  0  1  0  0  0  0  0999 V2000
    1.2760    0.1950    0.4550 C   0  0  2  0  0  0  0  0  0  0  0  0
    1.1770   -1.0890   -0.5660 C   0  0  1  0  0  0  0  0  0  0  0  0
   -0.6290    0.4020    0.4490 C   0  0  1  0  0  0  0  0  0  0  0  0
   -1.7940    0.0760   -0.6140 C   0  0  1  0  0  0  0  0  0  0  0  0
   -0.5230   -1.0710   -1.3210 C   0  0  3  0  0  0  0  0  0  0  0  0
    0.3450    0.0060    1.6150 C   0  0  2  0  0  0  0  0  0  0  0  0
   -0.9560   -1.2790    0.5850 C   0  0  1  0  0  0  0  0  0  0  0  0
   -3.2410   -0.3180   -0.5050 N   0  3  2  0  0  0  0  0  0  0  0  0
   -3.7240    0.5710   -0.3230 H   0  0  0  0  0  0  0  0  0  0  0  0
    2.3090    0.9630   -0.4120 C   0  0  3  0  0  0  0  0  0  0  0  0
    3.2530    0.1070    0.5500 C   0  0  3  0  0  0  0  0  0  0  0  0
   -2.3420   -0.8530    1.5540 C   0  0  2  0  0  0  0  0  0  0  0  0
    2.4440   -1.4280   -1.3740 C   0  0  0  0  0  0  0  0  0  0  0  0
    2.4610   -2.4860   -1.6670 H   0  0  0  0  0  0  0  0  0  0  0  0
    2.5450   -0.8630   -2.3040 H   0  0  0  0  0  0  0  0  0  0  0  0
   -1.1250   -2.1910   -0.6120 C   0  0  0  0  0  0  0  0  0  0  0  0
   -2.1210   -2.4880   -0.9080 H   0  0  0  0  0  0  0  0  0  0  0  0
   -0.5370   -3.1100   -0.6210 H   0  0  0  0  0  0  0  0  0  0  0  0
    2.1860   -0.1780    2.0650 C   0  0  0  0  0  0  0  0  0  0  0  0
    2.4760    0.5030    2.8840 H   0  0  0  0  0  0  0  0  0  0  0  0
    2.3410   -1.2140    2.3890 H   0  0  0  0  0  0  0  0  0  0  0  0
   -3.5420   -1.1280    0.6950 C   0  0  0  0  0  0  0  0  0  0  0  0
   -4.4800   -0.7760    1.1380 H   0  0  0  0  0  0  0  0  0  0  0  0
   -3.6640   -2.1850    0.4370 H   0  0  0  0  0  0  0  0  0  0  0  0
    3.6180   -1.1270   -0.3470 C   0  0  2  0  0  0  0  0  0  0  0  0
   -0.6720    1.8470   -0.0730 C   0  0  3  0  0  0  0  0  0  0  0  0
   -2.4190    0.7960    1.9880 C   0  0  0  0  0  0  0  0  0  0  0  0
   -3.4410    0.9950    2.3390 H   0  0  0  0  0  0  0  0  0  0  0  0
   -1.7970    0.9310    2.8830 H   0  0  0  0  0  0  0  0  0  0  0  0
    1.5950    1.5190    1.2800 O   0  0  0  0  0  0  0  0  0  0  0  0
    1.3780    2.3290    0.7490 H   0  0  0  0  0  0  0  0  0  0  0  0
    1.2400   -2.3090    0.2950 O   0  0  0  0  0  0  0  0  0  0  0  0
    2.1510   -2.4470    0.6420 H   0  0  0  0  0  0  0  0  0  0  0  0
   -2.0220    2.0560    0.9230 C   0  0  0  0  0  0  0  0  0  0  0  0
   -1.8840    2.9410    1.5570 H   0  0  0  0  0  0  0  0  0  0  0  0
   -2.8900    2.2750    0.2900 H   0  0  0  0  0  0  0  0  0  0  0  0
   -2.4240   -1.6580    2.7190 O   0  0  0  0  0  0  0  0  0  0  0  0
   -1.6470   -1.4800    3.2770 H   0  0  0  0  0  0  0  0  0  0  0  0
    2.6250    2.3670   -0.3740 O   0  0  0  0  0  0  0  0  0  0  0  0
   -3.9170   -0.7720   -1.7910 C   0  0  0  0  0  0  0  0  0  0  0  0
   -3.5460   -0.1320   -2.5980 H   0  0  0  0  0  0  0  0  0  0  0  0
   -3.6440   -1.8080   -2.0010 H   0  0  0  0  0  0  0  0  0  0  0  0
    3.7990   -2.2480    0.5240 O   0  0  0  0  0  0  0  0  0  0  0  0
    0.1380    2.9270    0.3830 O   0  0  0  0  0  0  0  0  0  0  0  0
    3.7810    2.6950   -1.1340 C   0  0  0  0  0  0  0  0  0  0  0  0
    3.9540    3.7710   -1.0440 H   0  0  0  0  0  0  0  0  0  0  0  0
    3.6250    2.4560   -2.1900 H   0  0  0  0  0  0  0  0  0  0  0  0
    4.6620    2.1690   -0.7570 H   0  0  0  0  0  0  0  0  0  0  0  0
    4.7470   -3.1850    0.0200 C   0  0  0  0  0  0  0  0  0  0  0  0
    4.7990   -4.0260    0.7160 H   0  0  0  0  0  0  0  0  0  0  0  0
    5.7370   -2.7240   -0.0450 H   0  0  0  0  0  0  0  0  0  0  0  0
    4.4410   -3.5610   -0.9610 H   0  0  0  0  0  0  0  0  0  0  0  0
   -0.1020    4.1590   -0.3000 C   0  0  0  0  0  0  0  0  0  0  0  0
    0.5100    4.9320    0.1710 H   0  0  0  0  0  0  0  0  0  0  0  0
   -1.1540    4.4500   -0.2280 H   0  0  0  0  0  0  0  0  0  0  0  0
    0.1940    4.0710   -1.3490 H   0  0  0  0  0  0  0  0  0  0  0  0
   -5.4240   -0.6230   -1.6740 C   0  0  0  0  0  0  0  0  0  0  0  0
   -5.7050    0.4080   -1.4340 H   0  0  0  0  0  0  0  0  0  0  0  0
   -5.8360   -1.2800   -0.9020 H   0  0  0  0  0  0  0  0  0  0  0  0
   -5.9000   -0.8880   -2.6230 H   0  0  0  0  0  0  0  0  0  0  0  0
    0.0190   -0.2560    2.6310 H   0  0  0  0  0  0  0  0  0  0  0  0
   -0.4760   -1.8900    1.3710 H   0  0  0  0  0  0  0  0  0  0  0  0
   -1.8480    0.7060   -1.5110 H   0  0  0  0  0  0  0  0  0  0  0  0
   -0.5090   -1.0740   -2.4120 H   0  0  0  0  0  0  0  0  0  0  0  0
    2.2500    0.7650   -1.4760 H   0  0  0  0  0  0  0  0  0  0  0  0
    4.1510    0.6180    0.9170 H   0  0  0  0  0  0  0  0  0  0  0  0
    4.5360   -0.9100   -0.9070 H   0  0  0  0  0  0  0  0  0  0  0  0
   -0.8310    2.0500   -1.1350 H   0  0  0  0  0  0  0  0  0  0  0  0
  1  2  1  0  0  0  0
  1  6  1  0  0  0  0
  1 10  1  0  0  0  0
  1 30  1  0  0  0  0
  2  5  1  0  0  0  0
  2 13  1  0  0  0  0
  2 32  1  0  0  0  0
  3  4  1  0  0  0  0
  3  6  1  0  0  0  0
  3  7  1  0  0  0  0
  3 26  1  0  0  0  0
  4  5  1  0  0  0  0
  4  8  1  0  0  0  0
  4 63  1  0  0  0  0
  5 16  1  0  0  0  0
  5 64  1  0  0  0  0
  6 19  1  0  0  0  0
  6 61  1  0  0  0  0
  7 12  1  0  0  0  0
  7 16  1  0  0  0  0
  7 62  1  0  0  0  0
  8  9  1  0  0  0  0
  8 22  1  0  0  0  0
  8 40  1  0  0  0  0
 10 11  1  0  0  0  0
 10 39  1  0  0  0  0
 10 65  1  0  0  0  0
 11 19  1  0  0  0  0
 11 25  1  0  0  0  0
 11 66  1  0  0  0  0
 12 22  1  0  0  0  0
 12 27  1  0  0  0  0
 12 37  1  0  0  0  0
 13 14  1  0  0  0  0
 13 15  1  0  0  0  0
 13 25  1  0  0  0  0
 16 17  1  0  0  0  0
 16 18  1  0  0  0  0
 19 20  1  0  0  0  0
 19 21  1  0  0  0  0
 22 23  1  0  0  0  0
 22 24  1  0  0  0  0
 25 43  1  0  0  0  0
 25 67  1  0  0  0  0
 26 34  1  0  0  0  0
 26 44  1  0  0  0  0
 26 68  1  0  0  0  0
 27 28  1  0  0  0  0
 27 29  1  0  0  0  0
 27 34  1  0  0  0  0
 30 31  1  0  0  0  0
 32 33  1  0  0  0  0
 34 35  1  0  0  0  0
 34 36  1  0  0  0  0
 37 38  1  0  0  0  0
 39 45  1  0  0  0  0
 40 41  1  0  0  0  0
 40 42  1  0  0  0  0
 40 57  1  0  0  0  0
 43 49  1  0  0  0  0
 44 53  1  0  0  0  0
 45 46  1  0  0  0  0
 45 47  1  0  0  0  0
 45 48  1  0  0  0  0
 49 50  1  0  0  0  0
 49 51  1  0  0  0  0
 49 52  1  0  0  0  0
 53 54  1  0  0  0  0
 53 55  1  0  0  0  0
 53 56  1  0  0  0  0
 57 58  1  0  0  0  0
 57 59  1  0  0  0  0
 57 60  1  0  0  0  0
M  CHG  1   8   1
M  END
>  <IDNUMBER>
AJ-738/21061002

>  <NAME>
Lappaconine

>  <ADD_INFO>
http://www.specs.net/enter.php?specsid=AJ-738/21061002

>  <H_ACCEPTORS>
7

>  <H_DONORS>
3

>  <ROTATABLE_BONDS>
4

>  <LOGP>
-0.97000003

>  <LOGS>
-0.44999999

>  <TPSA>
91.620003

>  <PRICE>
N07

$$$$
AJ-738/21061004
  MOE2011           3D

 32 33  0  0  1  0  0  0  0  0999 V2000
   -0.7790   -0.9520    0.0740 N   0  3  3  0  0  0  0  0  0  0  0  0
   -1.2180   -1.2650    0.9500 H   0  0  0  0  0  0  0  0  0  0  0  0
    0.0560    0.2880    0.4580 C   0  0  3  0  0  0  0  0  0  0  0  0
    1.4280    0.2420   -0.2490 C   0  0  3  0  0  0  0  0  0  0  0  0
    0.0230   -2.1390   -0.4190 C   0  0  0  0  0  0  0  0  0  0  0  0
   -0.6050   -3.0260   -0.2790 H   0  0  0  0  0  0  0  0  0  0  0  0
    0.2180   -2.0000   -1.4880 H   0  0  0  0  0  0  0  0  0  0  0  0
   -1.9180   -0.6510   -0.8700 C   0  0  0  0  0  0  0  0  0  0  0  0
   -1.4870   -0.2190   -1.7800 H   0  0  0  0  0  0  0  0  0  0  0  0
   -2.4090   -1.5970   -1.1230 H   0  0  0  0  0  0  0  0  0  0  0  0
    1.7900    2.6010   -0.6540 O   0  0  0  0  0  0  0  0  0  0  0  0
    2.4180    3.3330   -0.5190 H   0  0  0  0  0  0  0  0  0  0  0  0
    2.3080    1.4690    0.0260 C   0  0  0  0  0  0  0  0  0  0  0  0
    3.3260    1.3000   -0.3420 H   0  0  0  0  0  0  0  0  0  0  0  0
    2.3570    1.6900    1.0970 H   0  0  0  0  0  0  0  0  0  0  0  0
    1.3070   -2.2450    0.3760 C   0  0  0  0  0  0  0  0  0  0  0  0
    1.0710   -2.3400    1.4430 H   0  0  0  0  0  0  0  0  0  0  0  0
    1.8520   -3.1530    0.0970 H   0  0  0  0  0  0  0  0  0  0  0  0
    2.2010   -1.0270    0.1600 C   0  0  0  0  0  0  0  0  0  0  0  0
    2.9380   -1.2510   -0.6220 H   0  0  0  0  0  0  0  0  0  0  0  0
    2.7760   -0.8540    1.0790 H   0  0  0  0  0  0  0  0  0  0  0  0
   -0.7670    1.5650    0.2290 C   0  0  0  0  0  0  0  0  0  0  0  0
   -0.3410    2.3850    0.8190 H   0  0  0  0  0  0  0  0  0  0  0  0
   -0.7220    1.8710   -0.8230 H   0  0  0  0  0  0  0  0  0  0  0  0
   -2.9020    0.2930   -0.1930 C   0  0  0  0  0  0  0  0  0  0  0  0
   -3.5340    0.7500   -0.9630 H   0  0  0  0  0  0  0  0  0  0  0  0
   -3.5790   -0.2750    0.4560 H   0  0  0  0  0  0  0  0  0  0  0  0
   -2.2230    1.3810    0.6330 C   0  0  0  0  0  0  0  0  0  0  0  0
   -2.2730    1.1160    1.6970 H   0  0  0  0  0  0  0  0  0  0  0  0
   -2.7700    2.3240    0.5230 H   0  0  0  0  0  0  0  0  0  0  0  0
    0.2150    0.1780    1.5400 H   0  0  0  0  0  0  0  0  0  0  0  0
    1.2410    0.2060   -1.3320 H   0  0  0  0  0  0  0  0  0  0  0  0
  1  2  1  0  0  0  0
  1  3  1  0  0  0  0
  1  5  1  0  0  0  0
  1  8  1  0  0  0  0
  3  4  1  0  0  0  0
  3 22  1  0  0  0  0
  3 31  1  0  0  0  0
  4 13  1  0  0  0  0
  4 19  1  0  0  0  0
  4 32  1  0  0  0  0
  5  6  1  0  0  0  0
  5  7  1  0  0  0  0
  5 16  1  0  0  0  0
  8  9  1  0  0  0  0
  8 10  1  0  0  0  0
  8 25  1  0  0  0  0
 11 12  1  0  0  0  0
 11 13  1  0  0  0  0
 13 14  1  0  0  0  0
 13 15  1  0  0  0  0
 16 17  1  0  0  0  0
 16 18  1  0  0  0  0
 16 19  1  0  0  0  0
 19 20  1  0  0  0  0
 19 21  1  0  0  0  0
 22 23  1  0  0  0  0
 22 24  1  0  0  0  0
 22 28  1  0  0  0  0
 25 26  1  0  0  0  0
 25 27  1  0  0  0  0
 25 28  1  0  0  0  0
 28 29  1  0  0  0  0
 28 30  1  0  0  0  0
M  CHG  1   1   1
M  END
>  <IDNUMBER>
AJ-738/21061004

>  <NAME>
Epilupinine (Isolupinine)

>  <ADD_INFO>
http://www.specs.net/enter.php?specsid=AJ-738/21061004

>  <H_ACCEPTORS>
2

>  <H_DONORS>
1

>  <ROTATABLE_BONDS>
1

>  <LOGP>
1.64

>  <LOGS>
-0.82999998

>  <TPSA>
23.469999

>  <PRICE>
N04

>  <STEREOCHEM>
(-)-isomer

$$$$
AJ-738/21161003
  MOE2011           3D

 49 51  0  0  1  0  0  0  0  0999 V2000
   -1.0430   -0.0510   -0.4290 C   0  0  0  0  0  0  0  0  0  0  0  0
   -1.3120    1.2190   -0.8410 N   0  0  0  0  0  0  0  0  0  0  0  0
   -2.0050   -0.9050    0.1440 C   0  0  0  0  0  0  0  0  0  0  0  0
    0.4160   -0.5130   -0.6540 C   0  0  3  0  0  0  0  0  0  0  0  0
   -3.6080    0.8950   -0.0640 C   0  0  0  0  0  0  0  0  0  0  0  0
   -2.5750    1.6120   -0.6420 C   0  0  0  0  0  0  0  0  0  0  0  0
   -3.3010   -0.4000    0.3710 C   0  0  0  0  0  0  0  0  0  0  0  0
   -1.6770   -2.3100    0.5690 C   0  0  0  0  0  0  0  0  0  0  0  0
   -1.4720   -2.3070    1.6470 H   0  0  0  0  0  0  0  0  0  0  0  0
   -2.5340   -2.9730    0.3980 H   0  0  0  0  0  0  0  0  0  0  0  0
    1.3330    0.5260    0.0780 C   0  0  0  0  0  0  0  0  0  0  0  0
    1.1440    1.5170   -0.3510 H   0  0  0  0  0  0  0  0  0  0  0  0
    1.0470    0.5810    1.1370 H   0  0  0  0  0  0  0  0  0  0  0  0
   -2.9980    2.8480   -1.0150 O   0  0  0  0  0  0  0  0  0  0  0  0
   -4.7380    1.7520   -0.1010 C   0  0  0  0  0  0  0  0  0  0  0  0
   -5.7370    1.5400    0.2520 H   0  0  0  0  0  0  0  0  0  0  0  0
    0.7020   -1.9410   -0.0800 C   0  0  3  0  0  0  0  0  0  0  0  0
   -4.3140    2.9250   -0.6840 C   0  0  0  0  0  0  0  0  0  0  0  0
   -4.7990    3.8600   -0.9240 H   0  0  0  0  0  0  0  0  0  0  0  0
   -0.4910   -2.8850   -0.1810 C   0  0  0  0  0  0  0  0  0  0  0  0
   -0.7540   -3.0810   -1.2260 H   0  0  0  0  0  0  0  0  0  0  0  0
   -0.2290   -3.8650    0.2380 H   0  0  0  0  0  0  0  0  0  0  0  0
    3.7250    1.3490    0.6220 C   0  0  0  0  0  0  0  0  0  0  0  0
    0.7640   -0.3700   -2.0530 O   0  0  0  0  0  0  0  0  0  0  0  0
    2.8460    0.2590   -0.0280 C   0  0  0  0  0  0  0  0  0  0  0  0
    3.1320    0.1370   -1.0790 H   0  0  0  0  0  0  0  0  0  0  0  0
    3.0600   -0.6870    0.4820 H   0  0  0  0  0  0  0  0  0  0  0  0
   -4.2570   -1.2220    0.9270 O   0  0  0  0  0  0  0  0  0  0  0  0
    1.8250   -2.5600   -0.7090 O   0  0  0  0  0  0  0  0  0  0  0  0
    2.0070   -3.3950   -0.2450 H   0  0  0  0  0  0  0  0  0  0  0  0
    3.3310    1.4860    1.9900 O   0  0  0  0  0  0  0  0  0  0  0  0
    3.8690    2.1930    2.3860 H   0  0  0  0  0  0  0  0  0  0  0  0
    3.5800    2.7090   -0.0660 C   0  0  0  0  0  0  0  0  0  0  0  0
    3.7770    2.6390   -1.1410 H   0  0  0  0  0  0  0  0  0  0  0  0
    4.2790    3.4370    0.3620 H   0  0  0  0  0  0  0  0  0  0  0  0
    2.5820    3.1340    0.0840 H   0  0  0  0  0  0  0  0  0  0  0  0
    5.1920    0.9090    0.5960 C   0  0  0  0  0  0  0  0  0  0  0  0
    5.5550    0.7760   -0.4280 H   0  0  0  0  0  0  0  0  0  0  0  0
    5.3270   -0.0340    1.1390 H   0  0  0  0  0  0  0  0  0  0  0  0
    5.8320    1.6450    1.0970 H   0  0  0  0  0  0  0  0  0  0  0  0
    0.1050   -1.2120   -2.9810 C   0  0  0  0  0  0  0  0  0  0  0  0
   -0.9810   -1.1890   -2.8580 H   0  0  0  0  0  0  0  0  0  0  0  0
    0.4790   -2.2360   -2.9140 H   0  0  0  0  0  0  0  0  0  0  0  0
    0.3360   -0.8460   -3.9860 H   0  0  0  0  0  0  0  0  0  0  0  0
   -4.5280   -0.8390    2.2750 C   0  0  0  0  0  0  0  0  0  0  0  0
   -5.1280   -1.6310    2.7320 H   0  0  0  0  0  0  0  0  0  0  0  0
   -5.1080    0.0880    2.3120 H   0  0  0  0  0  0  0  0  0  0  0  0
   -3.6050   -0.7360    2.8570 H   0  0  0  0  0  0  0  0  0  0  0  0
    0.9460   -1.8480    0.9880 H   0  0  0  0  0  0  0  0  0  0  0  0
  1  2  1  0  0  0  0
  1  3  2  0  0  0  0
  1  4  1  0  0  0  0
  2  6  2  0  0  0  0
  3  7  1  0  0  0  0
  3  8  1  0  0  0  0
  4 11  1  0  0  0  0
  4 17  1  0  0  0  0
  4 24  1  0  0  0  0
  5  6  1  0  0  0  0
  5  7  2  0  0  0  0
  5 15  1  0  0  0  0
  6 14  1  0  0  0  0
  7 28  1  0  0  0  0
  8  9  1  0  0  0  0
  8 10  1  0  0  0  0
  8 20  1  0  0  0  0
 11 12  1  0  0  0  0
 11 13  1  0  0  0  0
 11 25  1  0  0  0  0
 14 18  1  0  0  0  0
 15 16  1  0  0  0  0
 15 18  2  0  0  0  0
 17 20  1  0  0  0  0
 17 29  1  0  0  0  0
 17 49  1  0  0  0  0
 18 19  1  0  0  0  0
 20 21  1  0  0  0  0
 20 22  1  0  0  0  0
 23 25  1  0  0  0  0
 23 31  1  0  0  0  0
 23 33  1  0  0  0  0
 23 37  1  0  0  0  0
 24 41  1  0  0  0  0
 25 26  1  0  0  0  0
 25 27  1  0  0  0  0
 28 45  1  0  0  0  0
 29 30  1  0  0  0  0
 31 32  1  0  0  0  0
 33 34  1  0  0  0  0
 33 35  1  0  0  0  0
 33 36  1  0  0  0  0
 37 38  1  0  0  0  0
 37 39  1  0  0  0  0
 37 40  1  0  0  0  0
 41 42  1  0  0  0  0
 41 43  1  0  0  0  0
 41 44  1  0  0  0  0
 45 46  1  0  0  0  0
 45 47  1  0  0  0  0
 45 48  1  0  0  0  0
M  END
>  <IDNUMBER>
AJ-738/21161003

>  <NAME>
Perforine

>  <ADD_INFO>
http://www.specs.net/enter.php?specsid=AJ-738/21161003

>  <H_ACCEPTORS>
4

>  <H_DONORS>
2

>  <ROTATABLE_BONDS>
5

>  <LOGP>
2.4300001

>  <LOGS>
-3.72

>  <TPSA>
84.949997

>  <PRICE>
N04

$$$$
AJ-738/21161005
  MOE2011           3D

 49 50  0  0  1  0  0  0  0  0999 V2000
   -1.7960    1.1910    0.6240 C   0  0  0  0  0  0  0  0  0  0  0  0
   -0.7690    1.3090    0.9400 H   0  0  0  0  0  0  0  0  0  0  0  0
   -2.4670    0.0290    0.6920 C   0  0  0  0  0  0  0  0  0  0  0  0
   -2.4230    2.4240    0.0890 C   0  0  0  0  0  0  0  0  0  0  0  0
   -3.7210    2.3290   -0.3310 N   0  0  0  0  0  0  0  0  0  0  0  0
   -4.1460    3.1760   -0.6890 H   0  0  0  0  0  0  0  0  0  0  0  0
   -3.8640   -0.0270    0.2110 C   0  0  0  0  0  0  0  0  0  0  0  0
   -4.4610    1.1400   -0.2880 C   0  0  0  0  0  0  0  0  0  0  0  0
    4.3400    0.9430    0.2100 C   0  0  0  0  0  0  0  0  0  0  0  0
   -1.7830    3.4690    0.0360 O   0  0  0  0  0  0  0  0  0  0  0  0
    0.5650   -1.8020   -0.3580 C   0  0  0  0  0  0  0  0  0  0  0  0
    0.4740   -1.3700    0.9180 C   0  0  0  0  0  0  0  0  0  0  0  0
    1.3880   -1.0770    1.4280 H   0  0  0  0  0  0  0  0  0  0  0  0
    3.1100    0.3250   -0.5270 C   0  0  3  0  0  0  0  0  0  0  0  0
   -1.9840   -1.1680    1.1720 O   0  0  0  0  0  0  0  0  0  0  0  0
    3.1380   -1.2150   -0.5620 C   0  0  0  0  0  0  0  0  0  0  0  0
    3.9720   -1.5320   -1.2020 H   0  0  0  0  0  0  0  0  0  0  0  0
    3.3330   -1.6330    0.4300 H   0  0  0  0  0  0  0  0  0  0  0  0
    1.8700   -1.8670   -1.1430 C   0  0  0  0  0  0  0  0  0  0  0  0
    2.0970   -2.9310   -1.2940 H   0  0  0  0  0  0  0  0  0  0  0  0
    1.6910   -1.4540   -2.1430 H   0  0  0  0  0  0  0  0  0  0  0  0
    5.5500    0.3430   -0.2720 O   0  0  0  0  0  0  0  0  0  0  0  0
    6.3010    0.8220    0.1170 H   0  0  0  0  0  0  0  0  0  0  0  0
   -0.7220   -1.2220    1.8270 C   0  0  0  0  0  0  0  0  0  0  0  0
   -0.5950   -0.3570    2.4890 H   0  0  0  0  0  0  0  0  0  0  0  0
   -0.7430   -2.0980    2.4860 H   0  0  0  0  0  0  0  0  0  0  0  0
    3.0680    0.8080   -1.8770 O   0  0  0  0  0  0  0  0  0  0  0  0
    2.1730    0.6490   -2.2200 H   0  0  0  0  0  0  0  0  0  0  0  0
   -4.6230   -1.2060    0.2380 C   0  0  0  0  0  0  0  0  0  0  0  0
   -4.1970   -2.1310    0.6180 H   0  0  0  0  0  0  0  0  0  0  0  0
   -5.7800    1.1380   -0.7470 C   0  0  0  0  0  0  0  0  0  0  0  0
   -6.2410    2.0440   -1.1320 H   0  0  0  0  0  0  0  0  0  0  0  0
    4.2690    0.6810    1.7200 C   0  0  0  0  0  0  0  0  0  0  0  0
    3.3410    1.0700    2.1520 H   0  0  0  0  0  0  0  0  0  0  0  0
    5.1120    1.1540    2.2370 H   0  0  0  0  0  0  0  0  0  0  0  0
    4.3420   -0.3870    1.9490 H   0  0  0  0  0  0  0  0  0  0  0  0
    4.4300    2.4550   -0.0390 C   0  0  0  0  0  0  0  0  0  0  0  0
    3.5110    2.9670    0.2650 H   0  0  0  0  0  0  0  0  0  0  0  0
    4.6220    2.6740   -1.0960 H   0  0  0  0  0  0  0  0  0  0  0  0
    5.2670    2.8950    0.5150 H   0  0  0  0  0  0  0  0  0  0  0  0
   -0.6080   -2.3380   -1.1410 C   0  0  0  0  0  0  0  0  0  0  0  0
   -0.2880   -3.1510   -1.8030 H   0  0  0  0  0  0  0  0  0  0  0  0
   -1.0430   -1.5490   -1.7620 H   0  0  0  0  0  0  0  0  0  0  0  0
   -1.3830   -2.7670   -0.5030 H   0  0  0  0  0  0  0  0  0  0  0  0
   -5.9430   -1.2130   -0.2210 C   0  0  0  0  0  0  0  0  0  0  0  0
   -6.5220   -2.1330   -0.1930 H   0  0  0  0  0  0  0  0  0  0  0  0
   -6.5200   -0.0430   -0.7130 C   0  0  0  0  0  0  0  0  0  0  0  0
   -7.5470   -0.0520   -1.0680 H   0  0  0  0  0  0  0  0  0  0  0  0
    2.2000    0.6900   -0.0390 H   0  0  0  0  0  0  0  0  0  0  0  0
  1  2  1  0  0  0  0
  1  3  2  0  0  0  0
  1  4  1  0  0  0  0
  3  7  1  0  0  0  0
  3 15  1  0  0  0  0
  4  5  1  0  0  0  0
  4 10  2  0  0  0  0
  5  6  1  0  0  0  0
  5  8  1  0  0  0  0
  7  8  2  0  0  0  0
  7 29  1  0  0  0  0
  8 31  1  0  0  0  0
  9 14  1  0  0  0  0
  9 22  1  0  0  0  0
  9 33  1  0  0  0  0
  9 37  1  0  0  0  0
 11 12  2  0  0  0  0
 11 19  1  0  0  0  0
 11 41  1  0  0  0  0
 12 13  1  0  0  0  0
 12 24  1  0  0  0  0
 14 16  1  0  0  0  0
 14 27  1  0  0  0  0
 14 49  1  0  0  0  0
 15 24  1  0  0  0  0
 16 17  1  0  0  0  0
 16 18  1  0  0  0  0
 16 19  1  0  0  0  0
 19 20  1  0  0  0  0
 19 21  1  0  0  0  0
 22 23  1  0  0  0  0
 24 25  1  0  0  0  0
 24 26  1  0  0  0  0
 27 28  1  0  0  0  0
 29 30  1  0  0  0  0
 29 45  2  0  0  0  0
 31 32  1  0  0  0  0
 31 47  2  0  0  0  0
 33 34  1  0  0  0  0
 33 35  1  0  0  0  0
 33 36  1  0  0  0  0
 37 38  1  0  0  0  0
 37 39  1  0  0  0  0
 37 40  1  0  0  0  0
 41 42  1  0  0  0  0
 41 43  1  0  0  0  0
 41 44  1  0  0  0  0
 45 46  1  0  0  0  0
 45 47  1  0  0  0  0
 47 48  1  0  0  0  0
M  END
>  <IDNUMBER>
AJ-738/21161005

>  <NAME>
Bucharaine

>  <ADD_INFO>
http://www.specs.net/enter.php?specsid=AJ-738/21161005

>  <H_ACCEPTORS>
5

>  <H_DONORS>
3

>  <ROTATABLE_BONDS>
7

>  <LOGP>
2.1600001

>  <LOGS>
-3.46

>  <TPSA>
78.790001

>  <PRICE>
N04

$$$$
AJ-738/21166007
  MOE2011           3D

 38 41  0  0  1  0  0  0  0  0999 V2000
    0.4920    1.1870   -0.6020 C   0  0  3  0  0  0  0  0  0  0  0  0
    0.7400    0.1440    0.4910 C   0  0  3  0  0  0  0  0  0  0  0  0
    0.8920    2.5320   -0.2680 O   0  0  0  0  0  0  0  0  0  0  0  0
   -0.5100    2.2850   -0.3370 C   0  0  2  0  0  0  0  0  0  0  0  0
    1.6540    0.7040    1.4630 O   0  0  0  0  0  0  0  0  0  0  0  0
    1.5210   -1.0790    0.0190 C   0  0  2  0  0  0  0  0  0  0  0  0
    2.9380    0.5350    1.0010 C   0  0  0  0  0  0  0  0  0  0  0  0
    2.8760   -0.4850   -0.0860 C   0  0  0  0  0  0  0  0  0  0  0  0
   -0.5990   -0.3160    1.1600 C   0  0  3  0  0  0  0  0  0  0  0  0
    0.8330   -1.8100   -1.1250 C   0  0  0  0  0  0  0  0  0  0  0  0
    1.0210   -1.3360   -2.0960 H   0  0  0  0  0  0  0  0  0  0  0  0
    1.2500   -2.8220   -1.2010 H   0  0  0  0  0  0  0  0  0  0  0  0
   -1.2210    2.1810    0.9740 C   0  0  0  0  0  0  0  0  0  0  0  0
   -0.5610    2.4350    1.8120 H   0  0  0  0  0  0  0  0  0  0  0  0
   -2.0650    2.8780    1.0110 H   0  0  0  0  0  0  0  0  0  0  0  0
   -1.7300    0.7470    1.1100 C   0  0  0  0  0  0  0  0  0  0  0  0
   -2.3880    0.5530    0.2550 H   0  0  0  0  0  0  0  0  0  0  0  0
   -2.3480    0.6620    2.0120 H   0  0  0  0  0  0  0  0  0  0  0  0
    3.9380    1.0750    1.4360 O   0  0  0  0  0  0  0  0  0  0  0  0
    3.8690   -0.7240   -0.9450 C   0  0  0  0  0  0  0  0  0  0  0  0
    4.8070   -0.1790   -0.8810 H   0  0  0  0  0  0  0  0  0  0  0  0
    3.7750   -1.4700   -1.7260 H   0  0  0  0  0  0  0  0  0  0  0  0
   -1.0540   -1.7190    0.6150 C   0  0  3  0  0  0  0  0  0  0  0  0
   -0.6850   -1.9020   -0.8740 C   0  0  0  0  0  0  0  0  0  0  0  0
   -1.0470   -2.8690   -1.2440 H   0  0  0  0  0  0  0  0  0  0  0  0
   -1.1970   -1.1350   -1.4700 H   0  0  0  0  0  0  0  0  0  0  0  0
   -1.2000    2.9540   -1.4770 C   0  0  0  0  0  0  0  0  0  0  0  0
   -2.1270    2.4280   -1.7260 H   0  0  0  0  0  0  0  0  0  0  0  0
   -0.5740    2.9760   -2.3760 H   0  0  0  0  0  0  0  0  0  0  0  0
   -1.4510    3.9880   -1.2190 H   0  0  0  0  0  0  0  0  0  0  0  0
   -2.5250   -2.0600    0.8650 C   0  0  0  0  0  0  0  0  0  0  0  0
   -2.7090   -3.1170    0.6450 H   0  0  0  0  0  0  0  0  0  0  0  0
   -3.1990   -1.4780    0.2290 H   0  0  0  0  0  0  0  0  0  0  0  0
   -2.7930   -1.8890    1.9120 H   0  0  0  0  0  0  0  0  0  0  0  0
    0.6430    0.8570   -1.6190 H   0  0  0  0  0  0  0  0  0  0  0  0
    1.6060   -1.7950    0.8530 H   0  0  0  0  0  0  0  0  0  0  0  0
   -0.3860   -0.4620    2.2300 H   0  0  0  0  0  0  0  0  0  0  0  0
   -0.4870   -2.4740    1.1790 H   0  0  0  0  0  0  0  0  0  0  0  0
  1  2  1  0  0  0  0
  1  3  1  0  0  0  0
  1  4  1  0  0  0  0
  1 35  1  0  0  0  0
  2  5  1  0  0  0  0
  2  6  1  0  0  0  0
  2  9  1  0  0  0  0
  3  4  1  0  0  0  0
  4 13  1  0  0  0  0
  4 27  1  0  0  0  0
  5  7  1  0  0  0  0
  6  8  1  0  0  0  0
  6 10  1  0  0  0  0
  6 36  1  0  0  0  0
  7  8  1  0  0  0  0
  7 19  2  0  0  0  0
  8 20  2  0  0  0  0
  9 16  1  0  0  0  0
  9 23  1  0  0  0  0
  9 37  1  0  0  0  0
 10 11  1  0  0  0  0
 10 12  1  0  0  0  0
 10 24  1  0  0  0  0
 13 14  1  0  0  0  0
 13 15  1  0  0  0  0
 13 16  1  0  0  0  0
 16 17  1  0  0  0  0
 16 18  1  0  0  0  0
 20 21  1  0  0  0  0
 20 22  1  0  0  0  0
 23 24  1  0  0  0  0
 23 31  1  0  0  0  0
 23 38  1  0  0  0  0
 24 25  1  0  0  0  0
 24 26  1  0  0  0  0
 27 28  1  0  0  0  0
 27 29  1  0  0  0  0
 27 30  1  0  0  0  0
 31 32  1  0  0  0  0
 31 33  1  0  0  0  0
 31 34  1  0  0  0  0
M  END
>  <IDNUMBER>
AJ-738/21166007

>  <NAME>
Arteannuin B (Arteannuin C, Qing Hau Sau II)

>  <ADD_INFO>
http://www.specs.net/enter.php?specsid=AJ-738/21166007

>  <H_ACCEPTORS>
3

>  <H_DONORS>
0

>  <ROTATABLE_BONDS>
0

>  <LOGP>
2.5599999

>  <LOGS>
-3.2

>  <TPSA>
38.830002

>  <PRICE>
N05

$$$$
AJ-738/21166037
  MOE2011           3D

100107  0  0  1  0  0  0  0  0999 V2000
    1.7130    0.7880   -1.1270 C   0  0  1  0  0  0  0  0  0  0  0  0
    0.1950    1.0440   -0.8900 C   0  0  1  0  0  0  0  0  0  0  0  0
   -4.5300    0.0000   -0.0950 C   0  0  2  0  0  0  0  0  0  0  0  0
   -2.1040    0.0500   -0.2690 C   0  0  2  0  0  0  0  0  0  0  0  0
   -2.6240    1.5340   -0.2850 C   0  0  1  0  0  0  0  0  0  0  0  0
    2.2120   -0.6270   -1.4740 C   0  0  3  0  0  0  0  0  0  0  0  0
    0.8860    1.5320   -2.1490 C   0  0  0  0  0  0  0  0  0  0  0  0
    0.6820    1.0570   -3.1020 H   0  0  0  0  0  0  0  0  0  0  0  0
    1.0320    2.6020   -2.2730 H   0  0  0  0  0  0  0  0  0  0  0  0
   -0.8460   -0.0710   -1.1800 C   0  0  3  0  0  0  0  0  0  0  0  0
   -4.9740   -0.7320    1.0570 O   0  0  0  0  0  0  0  0  0  0  0  0
   -4.0300    1.3950    0.3870 C   0  0  3  0  0  0  0  0  0  0  0  0
   -5.6530    0.1530   -0.9660 O   0  0  0  0  0  0  0  0  0  0  0  0
    7.0150    0.8900    0.4670 C   0  0  3  0  0  0  0  0  0  0  0  0
   -6.4020   -0.5720    1.0820 C   0  0  3  0  0  0  0  0  0  0  0  0
   -3.3550   -0.7040   -0.7760 C   0  0  0  0  0  0  0  0  0  0  0  0
   -3.3260   -1.7700   -0.5230 H   0  0  0  0  0  0  0  0  0  0  0  0
   -3.4430   -0.6340   -1.8670 H   0  0  0  0  0  0  0  0  0  0  0  0
    6.5060   -0.1560   -0.5480 C   0  0  3  0  0  0  0  0  0  0  0  0
    3.0820   -1.2800   -0.3200 C   0  0  0  0  0  0  0  0  0  0  0  0
   -6.6940    0.4470   -0.0230 C   0  0  1  0  0  0  0  0  0  0  0  0
    8.4940    0.6440    0.7700 C   0  0  3  0  0  0  0  0  0  0  0  0
   -0.2240   -1.4800   -1.2200 C   0  0  2  0  0  0  0  0  0  0  0  0
    1.0790   -1.5230   -2.0200 C   0  0  0  0  0  0  0  0  0  0  0  0
    1.4110   -2.5600   -2.1260 H   0  0  0  0  0  0  0  0  0  0  0  0
    0.8530   -1.2210   -3.0520 H   0  0  0  0  0  0  0  0  0  0  0  0
   -5.1110    2.4700    0.1220 C   0  0  1  0  0  0  0  0  0  0  0  0
   -0.1500    2.1010    0.1710 C   0  0  0  0  0  0  0  0  0  0  0  0
    0.3480    1.8080    1.1050 H   0  0  0  0  0  0  0  0  0  0  0  0
    0.3010    3.0620   -0.1050 H   0  0  0  0  0  0  0  0  0  0  0  0
    4.1820   -0.2800    0.1780 C   0  0  1  0  0  0  0  0  0  0  0  0
    6.7930   -1.4900   -0.1020 O   0  0  0  0  0  0  0  0  0  0  0  0
    2.8040    1.6870   -0.5540 C   0  0  0  0  0  0  0  0  0  0  0  0
    3.5110    1.9270   -1.3590 H   0  0  0  0  0  0  0  0  0  0  0  0
    2.4100    2.6510   -0.2190 H   0  0  0  0  0  0  0  0  0  0  0  0
    5.1160   -0.0210   -0.8790 O   0  0  0  0  0  0  0  0  0  0  0  0
   -1.6240    2.3920    0.4900 C   0  0  0  0  0  0  0  0  0  0  0  0
   -1.8170    3.4580    0.3160 H   0  0  0  0  0  0  0  0  0  0  0  0
   -1.7680    2.2640    1.5710 H   0  0  0  0  0  0  0  0  0  0  0  0
   -6.5120    1.9060    0.4480 C   0  0  0  0  0  0  0  0  0  0  0  0
   -7.2530    2.5300   -0.0700 H   0  0  0  0  0  0  0  0  0  0  0  0
   -6.7470    2.0010    1.5150 H   0  0  0  0  0  0  0  0  0  0  0  0
    8.7400   -0.8050    1.1790 C   0  0  3  0  0  0  0  0  0  0  0  0
   -7.1040   -1.9440    0.9040 C   0  0  0  0  0  0  0  0  0  0  0  0
    8.1830   -1.7270    0.0990 C   0  0  0  0  0  0  0  0  0  0  0  0
    8.3100   -2.7720    0.4010 H   0  0  0  0  0  0  0  0  0  0  0  0
    8.7250   -1.6130   -0.8480 H   0  0  0  0  0  0  0  0  0  0  0  0
    3.5490    1.0460    0.6040 C   0  0  0  0  0  0  0  0  0  0  0  0
    2.8730    0.8990    1.4530 H   0  0  0  0  0  0  0  0  0  0  0  0
    4.3230    1.7450    0.9370 H   0  0  0  0  0  0  0  0  0  0  0  0
    6.8820    2.2260   -0.0320 O   0  0  0  0  0  0  0  0  0  0  0  0
    7.3950    2.7840    0.5870 H   0  0  0  0  0  0  0  0  0  0  0  0
   -1.7750   -0.4870    1.1600 C   0  0  0  0  0  0  0  0  0  0  0  0
   -0.8060   -0.1380    1.5240 H   0  0  0  0  0  0  0  0  0  0  0  0
   -1.7420   -1.5830    1.1690 H   0  0  0  0  0  0  0  0  0  0  0  0
   -2.5130   -0.2010    1.9120 H   0  0  0  0  0  0  0  0  0  0  0  0
   -2.7690    2.1450   -1.7090 C   0  0  0  0  0  0  0  0  0  0  0  0
   -1.8240    2.1960   -2.2530 H   0  0  0  0  0  0  0  0  0  0  0  0
   -3.1240    3.1810   -1.6560 H   0  0  0  0  0  0  0  0  0  0  0  0
   -3.4750    1.5870   -2.3310 H   0  0  0  0  0  0  0  0  0  0  0  0
    8.9070    1.5270    1.8220 O   0  0  0  0  0  0  0  0  0  0  0  0
    9.7960    1.2140    2.0820 H   0  0  0  0  0  0  0  0  0  0  0  0
   -1.1460   -2.3790   -1.8450 O   0  0  0  0  0  0  0  0  0  0  0  0
   -0.7590   -3.2700   -1.8110 H   0  0  0  0  0  0  0  0  0  0  0  0
   -8.5190   -1.7200    0.9730 O   0  0  0  0  0  0  0  0  0  0  0  0
   -8.9670   -2.5810    0.9000 H   0  0  0  0  0  0  0  0  0  0  0  0
   10.1430   -0.9900    1.3560 O   0  0  0  0  0  0  0  0  0  0  0  0
   10.2860   -1.9020    1.6690 H   0  0  0  0  0  0  0  0  0  0  0  0
    2.2460   -1.7200    0.9000 C   0  0  0  0  0  0  0  0  0  0  0  0
    1.6680   -2.6240    0.6870 H   0  0  0  0  0  0  0  0  0  0  0  0
    1.5560   -0.9390    1.2310 H   0  0  0  0  0  0  0  0  0  0  0  0
    2.8910   -1.9680    1.7510 H   0  0  0  0  0  0  0  0  0  0  0  0
    3.7960   -2.5470   -0.8570 C   0  0  0  0  0  0  0  0  0  0  0  0
    3.0920   -3.3550   -1.0780 H   0  0  0  0  0  0  0  0  0  0  0  0
    4.4990   -2.9430   -0.1150 H   0  0  0  0  0  0  0  0  0  0  0  0
    4.3570   -2.3390   -1.7740 H   0  0  0  0  0  0  0  0  0  0  0  0
   -4.8610    3.7640    0.8920 C   0  0  0  0  0  0  0  0  0  0  0  0
   -5.6780    4.4750    0.7280 H   0  0  0  0  0  0  0  0  0  0  0  0
   -3.9370    4.2480    0.5650 H   0  0  0  0  0  0  0  0  0  0  0  0
   -4.7870    3.5790    1.9690 H   0  0  0  0  0  0  0  0  0  0  0  0
   -6.7230   -2.8810    2.0590 C   0  0  0  0  0  0  0  0  0  0  0  0
   -5.6530   -3.1100    2.0640 H   0  0  0  0  0  0  0  0  0  0  0  0
   -7.2760   -3.8260    1.9950 H   0  0  0  0  0  0  0  0  0  0  0  0
   -6.9900   -2.4360    3.0250 H   0  0  0  0  0  0  0  0  0  0  0  0
   -6.7970   -2.6360   -0.4270 C   0  0  0  0  0  0  0  0  0  0  0  0
   -5.7260   -2.8240   -0.5540 H   0  0  0  0  0  0  0  0  0  0  0  0
   -7.1570   -2.0470   -1.2760 H   0  0  0  0  0  0  0  0  0  0  0  0
   -7.3180   -3.5990   -0.4910 H   0  0  0  0  0  0  0  0  0  0  0  0
    2.9020   -0.4880   -2.3200 H   0  0  0  0  0  0  0  0  0  0  0  0
   -1.2090    0.0980   -2.2040 H   0  0  0  0  0  0  0  0  0  0  0  0
   -3.8890    1.3560    1.4760 H   0  0  0  0  0  0  0  0  0  0  0  0
    6.4410    0.8420    1.3990 H   0  0  0  0  0  0  0  0  0  0  0  0
   -6.6950   -0.1670    2.0580 H   0  0  0  0  0  0  0  0  0  0  0  0
    7.0280   -0.0010   -1.5010 H   0  0  0  0  0  0  0  0  0  0  0  0
   -7.6800    0.3180   -0.4790 H   0  0  0  0  0  0  0  0  0  0  0  0
    9.1110    0.9110   -0.0980 H   0  0  0  0  0  0  0  0  0  0  0  0
   -0.0600   -1.8570   -0.2140 H   0  0  0  0  0  0  0  0  0  0  0  0
   -5.1340    2.7200   -0.9440 H   0  0  0  0  0  0  0  0  0  0  0  0
    4.7000   -0.7160    1.0420 H   0  0  0  0  0  0  0  0  0  0  0  0
    8.2540   -0.9990    2.1430 H   0  0  0  0  0  0  0  0  0  0  0  0
  1  2  1  0  0  0  0
  1  6  1  0  0  0  0
  1  7  1  0  0  0  0
  1 33  1  0  0  0  0
  2  7  1  0  0  0  0
  2 10  1  0  0  0  0
  2 28  1  0  0  0  0
  3 11  1  0  0  0  0
  3 12  1  0  0  0  0
  3 13  1  0  0  0  0
  3 16  1  0  0  0  0
  4  5  1  0  0  0  0
  4 10  1  0  0  0  0
  4 16  1  0  0  0  0
  4 53  1  0  0  0  0
  5 12  1  0  0  0  0
  5 37  1  0  0  0  0
  5 57  1  0  0  0  0
  6 20  1  0  0  0  0
  6 24  1  0  0  0  0
  6 89  1  0  0  0  0
  7  8  1  0  0  0  0
  7  9  1  0  0  0  0
 10 23  1  0  0  0  0
 10 90  1  0  0  0  0
 11 15  1  0  0  0  0
 12 27  1  0  0  0  0
 12 91  1  0  0  0  0
 13 21  1  0  0  0  0
 14 19  1  0  0  0  0
 14 22  1  0  0  0  0
 14 51  1  0  0  0  0
 14 92  1  0  0  0  0
 15 21  1  0  0  0  0
 15 44  1  0  0  0  0
 15 93  1  0  0  0  0
 16 17  1  0  0  0  0
 16 18  1  0  0  0  0
 19 32  1  0  0  0  0
 19 36  1  0  0  0  0
 19 94  1  0  0  0  0
 20 31  1  0  0  0  0
 20 69  1  0  0  0  0
 20 73  1  0  0  0  0
 21 40  1  0  0  0  0
 21 95  1  0  0  0  0
 22 43  1  0  0  0  0
 22 61  1  0  0  0  0
 22 96  1  0  0  0  0
 23 24  1  0  0  0  0
 23 63  1  0  0  0  0
 23 97  1  0  0  0  0
 24 25  1  0  0  0  0
 24 26  1  0  0  0  0
 27 40  1  0  0  0  0
 27 77  1  0  0  0  0
 27 98  1  0  0  0  0
 28 29  1  0  0  0  0
 28 30  1  0  0  0  0
 28 37  1  0  0  0  0
 31 36  1  0  0  0  0
 31 48  1  0  0  0  0
 31 99  1  0  0  0  0
 32 45  1  0  0  0  0
 33 34  1  0  0  0  0
 33 35  1  0  0  0  0
 33 48  1  0  0  0  0
 37 38  1  0  0  0  0
 37 39  1  0  0  0  0
 40 41  1  0  0  0  0
 40 42  1  0  0  0  0
 43 45  1  0  0  0  0
 43 67  1  0  0  0  0
 43100  1  0  0  0  0
 44 65  1  0  0  0  0
 44 81  1  0  0  0  0
 44 85  1  0  0  0  0
 45 46  1  0  0  0  0
 45 47  1  0  0  0  0
 48 49  1  0  0  0  0
 48 50  1  0  0  0  0
 51 52  1  0  0  0  0
 53 54  1  0  0  0  0
 53 55  1  0  0  0  0
 53 56  1  0  0  0  0
 57 58  1  0  0  0  0
 57 59  1  0  0  0  0
 57 60  1  0  0  0  0
 61 62  1  0  0  0  0
 63 64  1  0  0  0  0
 65 66  1  0  0  0  0
 67 68  1  0  0  0  0
 69 70  1  0  0  0  0
 69 71  1  0  0  0  0
 69 72  1  0  0  0  0
 73 74  1  0  0  0  0
 73 75  1  0  0  0  0
 73 76  1  0  0  0  0
 77 78  1  0  0  0  0
 77 79  1  0  0  0  0
 77 80  1  0  0  0  0
 81 82  1  0  0  0  0
 81 83  1  0  0  0  0
 81 84  1  0  0  0  0
 85 86  1  0  0  0  0
 85 87  1  0  0  0  0
 85 88  1  0  0  0  0
M  END
>  <IDNUMBER>
AJ-738/21166037

>  <NAME>
Cycloorbicoside A

>  <ADD_INFO>
http://www.specs.net/enter.php?specsid=AJ-738/21166037

>  <H_ACCEPTORS>
9

>  <H_DONORS>
5

>  <ROTATABLE_BONDS>
3

>  <LOGP>
5.7600002

>  <LOGS>
-8.6499996

>  <TPSA>
138.07001

>  <PRICE>
N07

$$$$
AK-087/40177797
  MOE2011           3D

 19 19  0  0  0  0  0  0  0  0999 V2000
   -0.4480   -0.0470   -0.0010 C   0  0  0  0  0  0  0  0  0  0  0  0
    0.2260   -1.2810    0.0000 C   0  0  0  0  0  0  0  0  0  0  0  0
    1.6170   -1.3430    0.0000 C   0  0  0  0  0  0  0  0  0  0  0  0
    2.1070   -2.3110    0.0000 H   0  0  0  0  0  0  0  0  0  0  0  0
    0.2980    1.1370   -0.0010 C   0  0  0  0  0  0  0  0  0  0  0  0
   -0.1760    2.1140   -0.0010 H   0  0  0  0  0  0  0  0  0  0  0  0
   -1.9360   -0.0460   -0.0010 C   0  0  0  0  0  0  0  0  0  0  0  0
   -2.5110   -1.1370   -0.0010 O   0  0  0  0  0  0  0  0  0  0  0  0
    2.3410   -0.1560    0.0000 C   0  0  0  0  0  0  0  0  0  0  0  0
   -0.4490   -2.4770    0.0000 O   0  0  0  0  0  0  0  0  0  0  0  0
   -1.4170   -2.2600    0.0000 H   0  0  0  0  0  0  0  0  0  0  0  0
    1.6940    1.0770   -0.0010 C   0  0  0  0  0  0  0  0  0  0  0  0
    2.2800    1.9930   -0.0010 H   0  0  0  0  0  0  0  0  0  0  0  0
    3.7060   -0.1550    0.0000 O   0  0  0  0  0  0  0  0  0  0  0  0
    4.0190   -1.0750    0.0010 H   0  0  0  0  0  0  0  0  0  0  0  0
   -2.6870    1.2570    0.0010 C   0  0  0  0  0  0  0  0  0  0  0  0
   -2.4530    1.8270    0.9040 H   0  0  0  0  0  0  0  0  0  0  0  0
   -3.7620    1.0510   -0.0030 H   0  0  0  0  0  0  0  0  0  0  0  0
   -2.4480    1.8330   -0.8970 H   0  0  0  0  0  0  0  0  0  0  0  0
  1  2  2  0  0  0  0
  1  5  1  0  0  0  0
  1  7  1  0  0  0  0
  2  3  1  0  0  0  0
  2 10  1  0  0  0  0
  3  4  1  0  0  0  0
  3  9  2  0  0  0  0
  5  6  1  0  0  0  0
  5 12  2  0  0  0  0
  7  8  2  0  0  0  0
  7 16  1  0  0  0  0
  9 12  1  0  0  0  0
  9 14  1  0  0  0  0
 10 11  1  0  0  0  0
 12 13  1  0  0  0  0
 14 15  1  0  0  0  0
 16 17  1  0  0  0  0
 16 18  1  0  0  0  0
 16 19  1  0  0  0  0
M  END
>  <IDNUMBER>
AK-087/40177797

>  <NAME>
Resoacetophenone

>  <ADD_INFO>
http://www.specs.net/enter.php?specsid=AK-087/40177797

>  <H_ACCEPTORS>
1

>  <H_DONORS>
2

>  <ROTATABLE_BONDS>
1

>  <LOGP>
1.49

>  <LOGS>
-1

>  <TPSA>
57.529999

>  <PRICE>
N05

$$$$
AK-087/40191206
  MOE2011           3D

 19 19  0  0  0  0  0  0  0  0999 V2000
    1.9500    0.7830   -0.3990 C   0  0  0  0  0  0  0  0  0  0  0  0
    0.4920    0.5640   -0.3010 C   0  0  0  0  0  0  0  0  0  0  0  0
    2.3900    1.8740   -0.7390 O   0  0  0  0  0  0  0  0  0  0  0  0
   -0.1150   -0.5170   -0.9550 C   0  0  0  0  0  0  0  0  0  0  0  0
    0.4790   -1.2170   -1.5370 H   0  0  0  0  0  0  0  0  0  0  0  0
   -0.2820    1.4900    0.4050 C   0  0  0  0  0  0  0  0  0  0  0  0
    0.1830    2.3460    0.8890 H   0  0  0  0  0  0  0  0  0  0  0  0
    2.7480   -0.2830   -0.1390 O   0  0  0  0  0  0  0  0  0  0  0  0
   -2.2590    0.2250   -0.1450 C   0  0  0  0  0  0  0  0  0  0  0  0
   -1.6630    1.3130    0.4880 C   0  0  0  0  0  0  0  0  0  0  0  0
   -2.2740    2.0220    1.0390 H   0  0  0  0  0  0  0  0  0  0  0  0
   -1.4970   -0.6900   -0.8700 C   0  0  0  0  0  0  0  0  0  0  0  0
   -1.9600   -1.5320   -1.3760 H   0  0  0  0  0  0  0  0  0  0  0  0
   -3.6120    0.0930   -0.0360 O   0  0  0  0  0  0  0  0  0  0  0  0
   -3.8930   -0.6950   -0.5310 H   0  0  0  0  0  0  0  0  0  0  0  0
    2.3800   -1.2510    0.8590 C   0  0  0  0  0  0  0  0  0  0  0  0
    3.2970   -1.5780    1.3560 H   0  0  0  0  0  0  0  0  0  0  0  0
    1.9220   -2.1180    0.3760 H   0  0  0  0  0  0  0  0  0  0  0  0
    1.7140   -0.8270    1.6170 H   0  0  0  0  0  0  0  0  0  0  0  0
  1  2  1  0  0  0  0
  1  3  2  0  0  0  0
  1  8  1  0  0  0  0
  2  4  2  0  0  0  0
  2  6  1  0  0  0  0
  4  5  1  0  0  0  0
  4 12  1  0  0  0  0
  6  7  1  0  0  0  0
  6 10  2  0  0  0  0
  8 16  1  0  0  0  0
  9 10  1  0  0  0  0
  9 12  2  0  0  0  0
  9 14  1  0  0  0  0
 10 11  1  0  0  0  0
 12 13  1  0  0  0  0
 14 15  1  0  0  0  0
 16 17  1  0  0  0  0
 16 18  1  0  0  0  0
 16 19  1  0  0  0  0
M  END
>  <IDNUMBER>
AK-087/40191206

>  <NAME>
methyl 4-hydroxybenzoate

>  <ADD_INFO>
http://www.specs.net/enter.php?specsid=AK-087/40191206

>  <H_ACCEPTORS>
2

>  <H_DONORS>
1

>  <ROTATABLE_BONDS>
2

>  <LOGP>
1.96

>  <LOGS>
-1.41

>  <TPSA>
46.529999

>  <PRICE>
N05

$$$$
AK-087/40343173
  MOE2011           3D

 19 19  0  0  0  0  0  0  0  0999 V2000
    1.6950    0.3730    0.0020 C   0  0  0  0  0  0  0  0  0  0  0  0
    0.9420   -0.8110    0.0030 C   0  0  0  0  0  0  0  0  0  0  0  0
    3.1940    0.2820    0.0000 C   0  0  0  0  0  0  0  0  0  0  0  0
    1.0160    1.5940    0.0020 C   0  0  0  0  0  0  0  0  0  0  0  0
    1.5750    2.5270    0.0000 H   0  0  0  0  0  0  0  0  0  0  0  0
   -0.4510   -0.7990    0.0040 C   0  0  0  0  0  0  0  0  0  0  0  0
   -0.9710   -1.7490    0.0060 H   0  0  0  0  0  0  0  0  0  0  0  0
    3.6310   -0.9240   -0.0030 O   0  0  0  0  0  0  0  0  0  0  0  0
   -1.1210    0.4250    0.0030 C   0  0  0  0  0  0  0  0  0  0  0  0
    1.5870   -2.0280    0.0030 O   0  0  0  0  0  0  0  0  0  0  0  0
    2.5790   -1.7940    0.0000 H   0  0  0  0  0  0  0  0  0  0  0  0
   -0.3820    1.6150    0.0020 C   0  0  0  0  0  0  0  0  0  0  0  0
   -0.9010    2.5700    0.0010 H   0  0  0  0  0  0  0  0  0  0  0  0
    3.8730    1.3500    0.0000 O   0  5  0  0  0  0  0  0  0  0  0  0
   -2.4800    0.5960    0.0010 O   0  0  0  0  0  0  0  0  0  0  0  0
   -3.2720   -0.5860   -0.0050 C   0  0  0  0  0  0  0  0  0  0  0  0
   -4.3230   -0.2830   -0.0080 H   0  0  0  0  0  0  0  0  0  0  0  0
   -3.1000   -1.1810    0.8990 H   0  0  0  0  0  0  0  0  0  0  0  0
   -3.0930   -1.1770   -0.9090 H   0  0  0  0  0  0  0  0  0  0  0  0
  1  2  2  0  0  0  0
  1  3  1  0  0  0  0
  1  4  1  0  0  0  0
  2  6  1  0  0  0  0
  2 10  1  0  0  0  0
  3  8  2  0  0  0  0
  3 14  1  0  0  0  0
  4  5  1  0  0  0  0
  4 12  2  0  0  0  0
  6  7  1  0  0  0  0
  6  9  2  0  0  0  0
  9 12  1  0  0  0  0
  9 15  1  0  0  0  0
 10 11  1  0  0  0  0
 12 13  1  0  0  0  0
 15 16  1  0  0  0  0
 16 17  1  0  0  0  0
 16 18  1  0  0  0  0
 16 19  1  0  0  0  0
M  CHG  1  14  -1
M  END
>  <IDNUMBER>
AK-087/40343173

>  <NAME>
4-Methoxysalicylic acid

>  <ADD_INFO>
http://www.specs.net/enter.php?specsid=AK-087/40343173

>  <H_ACCEPTORS>
2

>  <H_DONORS>
2

>  <ROTATABLE_BONDS>
2

>  <LOGP>
2.3299999

>  <LOGS>
-1.83

>  <TPSA>
66.760002

>  <PRICE>
N05

$$$$
AK-087/41343686
  MOE2011           3D

 33 34  0  0  0  0  0  0  0  0999 V2000
    0.6670   -0.7860   -0.0240 C   0  0  0  0  0  0  0  0  0  0  0  0
    0.6570    0.2280    0.3520 H   0  0  0  0  0  0  0  0  0  0  0  0
    1.9800   -1.4700   -0.2010 C   0  0  0  0  0  0  0  0  0  0  0  0
   -0.4650   -1.4570   -0.2890 C   0  0  0  0  0  0  0  0  0  0  0  0
   -0.4180   -2.4910   -0.6290 H   0  0  0  0  0  0  0  0  0  0  0  0
    3.2150   -0.6550   -0.0730 C   0  0  0  0  0  0  0  0  0  0  0  0
    2.0630   -2.6750   -0.4150 O   0  0  0  0  0  0  0  0  0  0  0  0
    3.2620    0.6990   -0.4330 C   0  0  0  0  0  0  0  0  0  0  0  0
    2.3930    1.2110   -0.8360 H   0  0  0  0  0  0  0  0  0  0  0  0
    4.3760   -1.2890    0.3900 C   0  0  0  0  0  0  0  0  0  0  0  0
    4.3590   -2.3440    0.6560 H   0  0  0  0  0  0  0  0  0  0  0  0
   -1.8170   -0.9040   -0.1250 C   0  0  0  0  0  0  0  0  0  0  0  0
    5.5960    0.7760    0.1720 C   0  0  0  0  0  0  0  0  0  0  0  0
   -4.4590    0.0560    0.1480 C   0  0  0  0  0  0  0  0  0  0  0  0
    5.5660   -0.5710    0.5170 C   0  0  0  0  0  0  0  0  0  0  0  0
    6.4640   -1.0600    0.8810 H   0  0  0  0  0  0  0  0  0  0  0  0
    4.4560    1.4170   -0.3050 C   0  0  0  0  0  0  0  0  0  0  0  0
    4.4780    2.4650   -0.5890 H   0  0  0  0  0  0  0  0  0  0  0  0
   -2.1240    0.4370   -0.3860 C   0  0  0  0  0  0  0  0  0  0  0  0
   -1.3540    1.1300   -0.7160 H   0  0  0  0  0  0  0  0  0  0  0  0
   -2.8550   -1.7650    0.2550 C   0  0  0  0  0  0  0  0  0  0  0  0
   -2.6580   -2.8160    0.4530 H   0  0  0  0  0  0  0  0  0  0  0  0
   -3.4350    0.9160   -0.2470 C   0  0  0  0  0  0  0  0  0  0  0  0
   -3.6190    1.9640   -0.4600 H   0  0  0  0  0  0  0  0  0  0  0  0
   -4.1610   -1.2860    0.3950 C   0  0  0  0  0  0  0  0  0  0  0  0
   -4.9520   -1.9670    0.6970 H   0  0  0  0  0  0  0  0  0  0  0  0
    6.7810    1.4390    0.3100 O   0  0  0  0  0  0  0  0  0  0  0  0
    6.6590    2.3620    0.0310 H   0  0  0  0  0  0  0  0  0  0  0  0
   -5.7740    0.3920    0.3210 O   0  0  0  0  0  0  0  0  0  0  0  0
   -6.1290    1.7480    0.0800 C   0  0  0  0  0  0  0  0  0  0  0  0
   -7.2030    1.8500    0.2650 H   0  0  0  0  0  0  0  0  0  0  0  0
   -5.9430    2.0260   -0.9620 H   0  0  0  0  0  0  0  0  0  0  0  0
   -5.6070    2.4210    0.7690 H   0  0  0  0  0  0  0  0  0  0  0  0
  1  2  1  0  0  0  0
  1  3  1  0  0  0  0
  1  4  2  0  0  0  0
  3  6  1  0  0  0  0
  3  7  2  0  0  0  0
  4  5  1  0  0  0  0
  4 12  1  0  0  0  0
  6  8  2  0  0  0  0
  6 10  1  0  0  0  0
  8  9  1  0  0  0  0
  8 17  1  0  0  0  0
 10 11  1  0  0  0  0
 10 15  2  0  0  0  0
 12 19  2  0  0  0  0
 12 21  1  0  0  0  0
 13 15  1  0  0  0  0
 13 17  2  0  0  0  0
 13 27  1  0  0  0  0
 14 23  2  0  0  0  0
 14 25  1  0  0  0  0
 14 29  1  0  0  0  0
 15 16  1  0  0  0  0
 17 18  1  0  0  0  0
 19 20  1  0  0  0  0
 19 23  1  0  0  0  0
 21 22  1  0  0  0  0
 21 25  2  0  0  0  0
 23 24  1  0  0  0  0
 25 26  1  0  0  0  0
 27 28  1  0  0  0  0
 29 30  1  0  0  0  0
 30 31  1  0  0  0  0
 30 32  1  0  0  0  0
 30 33  1  0  0  0  0
M  END
>  <IDNUMBER>
AK-087/41343686

>  <NAME>
4,4'-Dihydroxychalcone, 4-Methyl ether

>  <ADD_INFO>
http://www.specs.net/enter.php?specsid=AK-087/41343686

>  <H_ACCEPTORS>
1

>  <H_DONORS>
1

>  <ROTATABLE_BONDS>
4

>  <LOGP>
3.26

>  <LOGS>
-3.26

>  <TPSA>
46.529999

>  <PRICE>
N05

$$$$
AK-087/42007301
  MOE2011           3D

 20 20  0  0  0  0  0  0  0  0999 V2000
    0.3970    0.1500    0.0690 C   0  0  0  0  0  0  0  0  0  0  0  0
   -0.3330   -1.0410    0.1230 C   0  0  0  0  0  0  0  0  0  0  0  0
   -0.3150    1.3650    0.0250 C   0  0  0  0  0  0  0  0  0  0  0  0
   -1.7280   -1.0230    0.0640 C   0  0  0  0  0  0  0  0  0  0  0  0
   -2.2880   -1.9540    0.0900 H   0  0  0  0  0  0  0  0  0  0  0  0
   -1.7080    1.3930   -0.0190 C   0  0  0  0  0  0  0  0  0  0  0  0
   -2.2200    2.3480   -0.0610 H   0  0  0  0  0  0  0  0  0  0  0  0
    1.8830    0.2280    0.0240 C   0  0  0  0  0  0  0  0  0  0  0  0
   -2.4040    0.1910   -0.0090 C   0  0  0  0  0  0  0  0  0  0  0  0
    2.4040    1.3110    0.3100 O   0  0  0  0  0  0  0  0  0  0  0  0
    0.2360   -2.2750    0.2600 O   0  0  0  0  0  0  0  0  0  0  0  0
    0.8330   -2.2490    1.0290 H   0  0  0  0  0  0  0  0  0  0  0  0
    0.3220    2.5830    0.0230 O   0  0  0  0  0  0  0  0  0  0  0  0
    1.2860    2.4060    0.1650 H   0  0  0  0  0  0  0  0  0  0  0  0
   -3.7670    0.1580   -0.0560 O   0  0  0  0  0  0  0  0  0  0  0  0
   -4.1020    1.0680   -0.1100 H   0  0  0  0  0  0  0  0  0  0  0  0
    2.7100   -0.9550   -0.3970 C   0  0  0  0  0  0  0  0  0  0  0  0
    2.2210   -1.5100   -1.2010 H   0  0  0  0  0  0  0  0  0  0  0  0
    2.9060   -1.6000    0.4620 H   0  0  0  0  0  0  0  0  0  0  0  0
    3.6650   -0.5950   -0.7910 H   0  0  0  0  0  0  0  0  0  0  0  0
  1  2  2  0  0  0  0
  1  3  1  0  0  0  0
  1  8  1  0  0  0  0
  2  4  1  0  0  0  0
  2 11  1  0  0  0  0
  3  6  2  0  0  0  0
  3 13  1  0  0  0  0
  4  5  1  0  0  0  0
  4  9  2  0  0  0  0
  6  7  1  0  0  0  0
  6  9  1  0  0  0  0
  8 10  2  0  0  0  0
  8 17  1  0  0  0  0
  9 15  1  0  0  0  0
 11 12  1  0  0  0  0
 13 14  1  0  0  0  0
 15 16  1  0  0  0  0
 17 18  1  0  0  0  0
 17 19  1  0  0  0  0
 17 20  1  0  0  0  0
M  END
>  <IDNUMBER>
AK-087/42007301

>  <NAME>
Phloroacetophenone

>  <ADD_INFO>
http://www.specs.net/enter.php?specsid=AK-087/42007301

>  <H_ACCEPTORS>
1

>  <H_DONORS>
3

>  <ROTATABLE_BONDS>
1

>  <LOGP>
1.79

>  <LOGS>
-1.37

>  <TPSA>
77.760002

>  <PRICE>
N05

$$$$
AK-087/42191369
  MOE2011           3D

 24 24  0  0  0  0  0  0  0  0999 V2000
   -0.7470   -0.3900   -0.5790 C   0  0  0  0  0  0  0  0  0  0  0  0
   -0.1950    0.8960   -0.5600 C   0  0  0  0  0  0  0  0  0  0  0  0
    0.0830   -1.5590   -0.9350 C   0  0  0  0  0  0  0  0  0  0  0  0
    1.1460    1.1330   -0.8850 O   0  0  0  0  0  0  0  0  0  0  0  0
    2.0330    0.8240    0.1390 C   0  0  0  0  0  0  0  0  0  0  0  0
    0.7540   -1.5540   -1.9590 O   0  0  0  0  0  0  0  0  0  0  0  0
    1.7450    0.4180    1.2570 O   0  0  0  0  0  0  0  0  0  0  0  0
    0.0230   -2.6360   -0.1100 O   0  0  0  0  0  0  0  0  0  0  0  0
   -2.1150   -0.5570   -0.3310 C   0  0  0  0  0  0  0  0  0  0  0  0
   -2.5730   -1.5420   -0.3770 H   0  0  0  0  0  0  0  0  0  0  0  0
   -0.9910    2.0090   -0.2850 C   0  0  0  0  0  0  0  0  0  0  0  0
   -0.5610    3.0070   -0.2850 H   0  0  0  0  0  0  0  0  0  0  0  0
    3.4330    1.0670   -0.3410 C   0  0  0  0  0  0  0  0  0  0  0  0
    3.6500    0.4180   -1.1920 H   0  0  0  0  0  0  0  0  0  0  0  0
    4.1360    0.8340    0.4640 H   0  0  0  0  0  0  0  0  0  0  0  0
    3.5530    2.1180   -0.6160 H   0  0  0  0  0  0  0  0  0  0  0  0
   -0.2480   -2.5040    1.2970 C   0  0  0  0  0  0  0  0  0  0  0  0
    0.3700   -3.2370    1.8220 H   0  0  0  0  0  0  0  0  0  0  0  0
   -1.2990   -2.7390    1.4850 H   0  0  0  0  0  0  0  0  0  0  0  0
    0.0010   -1.5120    1.6800 H   0  0  0  0  0  0  0  0  0  0  0  0
   -2.9090    0.5540   -0.0380 C   0  0  0  0  0  0  0  0  0  0  0  0
   -3.9710    0.4260    0.1590 H   0  0  0  0  0  0  0  0  0  0  0  0
   -2.3480    1.8330   -0.0130 C   0  0  0  0  0  0  0  0  0  0  0  0
   -2.9730    2.6950    0.2070 H   0  0  0  0  0  0  0  0  0  0  0  0
  1  2  2  0  0  0  0
  1  3  1  0  0  0  0
  1  9  1  0  0  0  0
  2  4  1  0  0  0  0
  2 11  1  0  0  0  0
  3  6  2  0  0  0  0
  3  8  1  0  0  0  0
  4  5  1  0  0  0  0
  5  7  2  0  0  0  0
  5 13  1  0  0  0  0
  8 17  1  0  0  0  0
  9 10  1  0  0  0  0
  9 21  2  0  0  0  0
 11 12  1  0  0  0  0
 11 23  2  0  0  0  0
 13 14  1  0  0  0  0
 13 15  1  0  0  0  0
 13 16  1  0  0  0  0
 17 18  1  0  0  0  0
 17 19  1  0  0  0  0
 17 20  1  0  0  0  0
 21 22  1  0  0  0  0
 21 23  1  0  0  0  0
 23 24  1  0  0  0  0
M  END
>  <IDNUMBER>
AK-087/42191369

>  <NAME>
Aspirin, Methyl ester

>  <ADD_INFO>
http://www.specs.net/enter.php?specsid=AK-087/42191369

>  <H_ACCEPTORS>
3

>  <H_DONORS>
0

>  <ROTATABLE_BONDS>
4

>  <LOGP>
1.46

>  <LOGS>
-1.86

>  <TPSA>
52.599998

>  <PRICE>
N05

$$$$
AK-087/42718128
  MOE2011           3D

 22 22  0  0  0  0  0  0  0  0999 V2000
   -1.4840    0.8620   -0.1100 C   0  0  0  0  0  0  0  0  0  0  0  0
   -0.7750   -0.3230   -0.3470 C   0  0  0  0  0  0  0  0  0  0  0  0
   -2.9890    0.9410   -0.1290 C   0  0  0  0  0  0  0  0  0  0  0  0
   -0.7450    2.0270    0.1550 C   0  0  0  0  0  0  0  0  0  0  0  0
   -1.2690    2.9640    0.3360 H   0  0  0  0  0  0  0  0  0  0  0  0
    0.6290   -0.3450   -0.3360 C   0  0  0  0  0  0  0  0  0  0  0  0
    1.1240   -1.2820   -0.5610 H   0  0  0  0  0  0  0  0  0  0  0  0
   -3.4910    1.9960   -0.6330 O   0  0  0  0  0  0  0  0  0  0  0  0
    1.3470    0.8170   -0.0580 C   0  0  0  0  0  0  0  0  0  0  0  0
    0.6520    2.0020    0.1870 C   0  0  0  0  0  0  0  0  0  0  0  0
    1.1990    2.9170    0.3970 H   0  0  0  0  0  0  0  0  0  0  0  0
   -3.6440   -0.0140    0.3930 O   0  5  0  0  0  0  0  0  0  0  0  0
   -1.4250   -1.4770   -0.7040 O   0  0  0  0  0  0  0  0  0  0  0  0
    2.7100    0.9290   -0.0090 O   0  0  0  0  0  0  0  0  0  0  0  0
   -1.5540   -2.3390    0.4270 C   0  0  0  0  0  0  0  0  0  0  0  0
   -2.3150   -3.0900    0.1920 H   0  0  0  0  0  0  0  0  0  0  0  0
   -1.8690   -1.8060    1.3310 H   0  0  0  0  0  0  0  0  0  0  0  0
   -0.6090   -2.8610    0.6130 H   0  0  0  0  0  0  0  0  0  0  0  0
    3.4600   -0.2570   -0.2430 C   0  0  0  0  0  0  0  0  0  0  0  0
    4.5210   -0.0040   -0.1580 H   0  0  0  0  0  0  0  0  0  0  0  0
    3.2890   -0.6390   -1.2550 H   0  0  0  0  0  0  0  0  0  0  0  0
    3.2380   -1.0200    0.5110 H   0  0  0  0  0  0  0  0  0  0  0  0
  1  2  2  0  0  0  0
  1  3  1  0  0  0  0
  1  4  1  0  0  0  0
  2  6  1  0  0  0  0
  2 13  1  0  0  0  0
  3  8  2  0  0  0  0
  3 12  1  0  0  0  0
  4  5  1  0  0  0  0
  4 10  2  0  0  0  0
  6  7  1  0  0  0  0
  6  9  2  0  0  0  0
  9 10  1  0  0  0  0
  9 14  1  0  0  0  0
 10 11  1  0  0  0  0
 13 15  1  0  0  0  0
 14 19  1  0  0  0  0
 15 16  1  0  0  0  0
 15 17  1  0  0  0  0
 15 18  1  0  0  0  0
 19 20  1  0  0  0  0
 19 21  1  0  0  0  0
 19 22  1  0  0  0  0
M  CHG  1  12  -1
M  END
>  <IDNUMBER>
AK-087/42718128

>  <NAME>
beta-Resorcylic acid dimethyl ether

>  <ADD_INFO>
http://www.specs.net/enter.php?specsid=AK-087/42718128

>  <H_ACCEPTORS>
2

>  <H_DONORS>
1

>  <ROTATABLE_BONDS>
3

>  <LOGP>
1.6900001

>  <LOGS>
-1.98

>  <TPSA>
55.759998

>  <PRICE>
N05

$$$$
AK-087/42718176
  MOE2011           3D

 23 23  0  0  0  0  0  0  0  0999 V2000
   -0.5720   -0.4440    0.1930 C   0  0  0  0  0  0  0  0  0  0  0  0
   -1.1080    0.8530    0.1820 C   0  0  0  0  0  0  0  0  0  0  0  0
    0.8820   -0.7440    0.2970 C   0  0  0  0  0  0  0  0  0  0  0  0
   -1.4460   -1.5380    0.0990 C   0  0  0  0  0  0  0  0  0  0  0  0
   -1.0620   -2.5570    0.1040 H   0  0  0  0  0  0  0  0  0  0  0  0
   -2.4850    1.0580    0.0800 C   0  0  0  0  0  0  0  0  0  0  0  0
   -2.8710    2.0730    0.0740 H   0  0  0  0  0  0  0  0  0  0  0  0
    1.3420   -1.8740    0.2910 O   0  0  0  0  0  0  0  0  0  0  0  0
   -3.3320   -0.0410   -0.0110 C   0  0  0  0  0  0  0  0  0  0  0  0
   -0.3430    1.9870    0.2680 O   0  0  0  0  0  0  0  0  0  0  0  0
    0.5950    1.7080    0.3380 H   0  0  0  0  0  0  0  0  0  0  0  0
   -2.8240   -1.3350   -0.0030 C   0  0  0  0  0  0  0  0  0  0  0  0
   -3.4980   -2.1840   -0.0760 H   0  0  0  0  0  0  0  0  0  0  0  0
    1.5940    0.4120    0.3920 O   0  0  0  0  0  0  0  0  0  0  0  0
   -4.6840    0.1100   -0.1130 O   0  0  0  0  0  0  0  0  0  0  0  0
   -4.8950    1.0590   -0.1110 H   0  0  0  0  0  0  0  0  0  0  0  0
    3.0220    0.2600    0.4960 C   0  0  0  0  0  0  0  0  0  0  0  0
    3.3990    1.1460    1.0180 H   0  0  0  0  0  0  0  0  0  0  0  0
    3.2850   -0.6120    1.1050 H   0  0  0  0  0  0  0  0  0  0  0  0
    3.6380    0.1800   -0.8880 C   0  0  0  0  0  0  0  0  0  0  0  0
    3.3620    1.0570   -1.4830 H   0  0  0  0  0  0  0  0  0  0  0  0
    3.2740   -0.6990   -1.4290 H   0  0  0  0  0  0  0  0  0  0  0  0
    4.7280    0.1250   -0.8250 H   0  0  0  0  0  0  0  0  0  0  0  0
  1  2  2  0  0  0  0
  1  3  1  0  0  0  0
  1  4  1  0  0  0  0
  2  6  1  0  0  0  0
  2 10  1  0  0  0  0
  3  8  2  0  0  0  0
  3 14  1  0  0  0  0
  4  5  1  0  0  0  0
  4 12  2  0  0  0  0
  6  7  1  0  0  0  0
  6  9  2  0  0  0  0
  9 12  1  0  0  0  0
  9 15  1  0  0  0  0
 10 11  1  0  0  0  0
 12 13  1  0  0  0  0
 14 17  1  0  0  0  0
 15 16  1  0  0  0  0
 17 18  1  0  0  0  0
 17 19  1  0  0  0  0
 17 20  1  0  0  0  0
 20 21  1  0  0  0  0
 20 22  1  0  0  0  0
 20 23  1  0  0  0  0
M  END
>  <IDNUMBER>
AK-087/42718176

>  <NAME>
beta-Resorcylic acid, Ethyl ester

>  <ADD_INFO>
http://www.specs.net/enter.php?specsid=AK-087/42718176

>  <H_ACCEPTORS>
2

>  <H_DONORS>
2

>  <ROTATABLE_BONDS>
3

>  <LOGP>
2.6099999

>  <LOGS>
-2.1800001

>  <TPSA>
66.760002

>  <PRICE>
N05

$$$$
AK-087/42718197
  MOE2011           3D

 23 23  0  0  0  0  0  0  0  0999 V2000
   -0.4050    0.3340   -0.2050 C   0  0  0  0  0  0  0  0  0  0  0  0
    1.0370    0.6730   -0.3120 C   0  0  0  0  0  0  0  0  0  0  0  0
   -1.3260    1.3850   -0.1120 C   0  0  0  0  0  0  0  0  0  0  0  0
   -0.9920    2.4200   -0.1200 H   0  0  0  0  0  0  0  0  0  0  0  0
   -0.8660   -0.9880   -0.1910 C   0  0  0  0  0  0  0  0  0  0  0  0
   -0.1800   -1.8280   -0.2600 H   0  0  0  0  0  0  0  0  0  0  0  0
   -2.6870    1.1070   -0.0070 C   0  0  0  0  0  0  0  0  0  0  0  0
   -2.2320   -1.2430   -0.0850 C   0  0  0  0  0  0  0  0  0  0  0  0
   -3.1550   -0.2040    0.0080 C   0  0  0  0  0  0  0  0  0  0  0  0
   -4.2160   -0.4130    0.0900 H   0  0  0  0  0  0  0  0  0  0  0  0
    1.4600    1.8180   -0.3030 O   0  0  0  0  0  0  0  0  0  0  0  0
    1.7820   -0.4560   -0.4170 O   0  0  0  0  0  0  0  0  0  0  0  0
   -3.5420    2.1680    0.0800 O   0  0  0  0  0  0  0  0  0  0  0  0
   -4.4540    1.8390    0.1470 H   0  0  0  0  0  0  0  0  0  0  0  0
   -2.6280   -2.5500   -0.0750 O   0  0  0  0  0  0  0  0  0  0  0  0
   -3.5950   -2.5900    0.0020 H   0  0  0  0  0  0  0  0  0  0  0  0
    3.2020   -0.2710   -0.5280 C   0  0  0  0  0  0  0  0  0  0  0  0
    3.5980   -1.1430   -1.0580 H   0  0  0  0  0  0  0  0  0  0  0  0
    3.4410    0.6110   -1.1330 H   0  0  0  0  0  0  0  0  0  0  0  0
    3.8250   -0.1830    0.8520 C   0  0  0  0  0  0  0  0  0  0  0  0
    3.5750   -1.0690    1.4450 H   0  0  0  0  0  0  0  0  0  0  0  0
    3.4440    0.6850    1.4000 H   0  0  0  0  0  0  0  0  0  0  0  0
    4.9130   -0.1010    0.7820 H   0  0  0  0  0  0  0  0  0  0  0  0
  1  2  1  0  0  0  0
  1  3  2  0  0  0  0
  1  5  1  0  0  0  0
  2 11  2  0  0  0  0
  2 12  1  0  0  0  0
  3  4  1  0  0  0  0
  3  7  1  0  0  0  0
  5  6  1  0  0  0  0
  5  8  2  0  0  0  0
  7  9  2  0  0  0  0
  7 13  1  0  0  0  0
  8  9  1  0  0  0  0
  8 15  1  0  0  0  0
  9 10  1  0  0  0  0
 12 17  1  0  0  0  0
 13 14  1  0  0  0  0
 15 16  1  0  0  0  0
 17 18  1  0  0  0  0
 17 19  1  0  0  0  0
 17 20  1  0  0  0  0
 20 21  1  0  0  0  0
 20 22  1  0  0  0  0
 20 23  1  0  0  0  0
M  END
>  <IDNUMBER>
AK-087/42718197

>  <NAME>
alpha-Resorcylic acid, Ethyl ester

>  <ADD_INFO>
http://www.specs.net/enter.php?specsid=AK-087/42718197

>  <H_ACCEPTORS>
2

>  <H_DONORS>
2

>  <ROTATABLE_BONDS>
3

>  <LOGP>
1.36

>  <LOGS>
-1.11

>  <TPSA>
66.760002

>  <PRICE>
N05

$$$$
AK-087/42718224
  MOE2011           3D

 25 26  0  0  0  0  0  0  0  0999 V2000
   -1.0290    0.2070    0.2450 C   0  0  0  0  0  0  0  0  0  0  0  0
    0.2610    0.7410    0.3190 C   0  0  0  0  0  0  0  0  0  0  0  0
   -2.1270    1.0890    0.3450 O   0  0  0  0  0  0  0  0  0  0  0  0
   -3.4360    0.6340    0.2690 C   0  0  0  0  0  0  0  0  0  0  0  0
   -2.5980   -1.6630   -0.0100 C   0  0  0  0  0  0  0  0  0  0  0  0
   -2.7600   -2.7270   -0.1460 H   0  0  0  0  0  0  0  0  0  0  0  0
   -1.2370   -1.1580    0.0710 C   0  0  0  0  0  0  0  0  0  0  0  0
   -3.6260   -0.8150    0.0840 C   0  0  0  0  0  0  0  0  0  0  0  0
   -4.6520   -1.1590    0.0270 H   0  0  0  0  0  0  0  0  0  0  0  0
    1.3770   -0.1060    0.2500 C   0  0  0  0  0  0  0  0  0  0  0  0
   -4.3990    1.3880    0.3470 O   0  0  0  0  0  0  0  0  0  0  0  0
   -0.1290   -2.0020   -0.0180 C   0  0  0  0  0  0  0  0  0  0  0  0
   -0.2580   -3.0730   -0.1530 H   0  0  0  0  0  0  0  0  0  0  0  0
    1.1700   -1.4800    0.0730 C   0  0  0  0  0  0  0  0  0  0  0  0
    1.9990   -2.1780    0.0060 H   0  0  0  0  0  0  0  0  0  0  0  0
    0.4190    2.0880    0.5340 O   0  0  0  0  0  0  0  0  0  0  0  0
    2.6030    0.4950    0.3620 O   0  0  0  0  0  0  0  0  0  0  0  0
    0.5820    2.7670   -0.7110 C   0  0  0  0  0  0  0  0  0  0  0  0
    0.6960    3.8340   -0.4980 H   0  0  0  0  0  0  0  0  0  0  0  0
   -0.2990    2.6420   -1.3500 H   0  0  0  0  0  0  0  0  0  0  0  0
    1.4820    2.4300   -1.2370 H   0  0  0  0  0  0  0  0  0  0  0  0
    3.7500   -0.3410    0.3070 C   0  0  0  0  0  0  0  0  0  0  0  0
    4.6330    0.2950    0.4200 H   0  0  0  0  0  0  0  0  0  0  0  0
    3.8250   -0.8440   -0.6630 H   0  0  0  0  0  0  0  0  0  0  0  0
    3.7530   -1.0640    1.1290 H   0  0  0  0  0  0  0  0  0  0  0  0
  1  2  2  0  0  0  0
  1  3  1  0  0  0  0
  1  7  1  0  0  0  0
  2 10  1  0  0  0  0
  2 16  1  0  0  0  0
  3  4  1  0  0  0  0
  4  8  1  0  0  0  0
  4 11  2  0  0  0  0
  5  6  1  0  0  0  0
  5  7  1  0  0  0  0
  5  8  2  0  0  0  0
  7 12  2  0  0  0  0
  8  9  1  0  0  0  0
 10 14  2  0  0  0  0
 10 17  1  0  0  0  0
 12 13  1  0  0  0  0
 12 14  1  0  0  0  0
 14 15  1  0  0  0  0
 16 18  1  0  0  0  0
 17 22  1  0  0  0  0
 18 19  1  0  0  0  0
 18 20  1  0  0  0  0
 18 21  1  0  0  0  0
 22 23  1  0  0  0  0
 22 24  1  0  0  0  0
 22 25  1  0  0  0  0
M  END
>  <IDNUMBER>
AK-087/42718224

>  <NAME>
7,8-Dimethoxycoumarin

>  <ADD_INFO>
http://www.specs.net/enter.php?specsid=AK-087/42718224

>  <H_ACCEPTORS>
1

>  <H_DONORS>
0

>  <ROTATABLE_BONDS>
2

>  <LOGP>
1.16

>  <LOGS>
-1.6900001

>  <TPSA>
44.759998

>  <PRICE>
N05

$$$$
AK-087/42718249
  MOE2011           3D

 36 37  0  0  0  0  0  0  0  0999 V2000
    0.5920   -0.8590   -0.2880 C   0  0  0  0  0  0  0  0  0  0  0  0
   -0.2530    0.2430   -0.4770 C   0  0  0  0  0  0  0  0  0  0  0  0
    2.0570   -0.6130   -0.2850 C   0  0  0  0  0  0  0  0  0  0  0  0
    2.4980    0.8120   -0.2480 C   0  0  0  0  0  0  0  0  0  0  0  0
    0.2310    1.5200   -0.6300 O   0  0  0  0  0  0  0  0  0  0  0  0
    1.5740    1.7670   -0.4420 C   0  0  0  0  0  0  0  0  0  0  0  0
    0.0420   -2.1440   -0.1230 C   0  0  0  0  0  0  0  0  0  0  0  0
   -1.6540    0.0960   -0.5220 C   0  0  0  0  0  0  0  0  0  0  0  0
   -2.1790   -1.1840   -0.3200 C   0  0  0  0  0  0  0  0  0  0  0  0
   -1.3490   -2.2890   -0.1360 C   0  0  0  0  0  0  0  0  0  0  0  0
   -1.8250   -3.2530    0.0160 H   0  0  0  0  0  0  0  0  0  0  0  0
    2.8780   -1.5210   -0.3280 O   0  0  0  0  0  0  0  0  0  0  0  0
    3.8350    1.1420   -0.1000 O   0  0  0  0  0  0  0  0  0  0  0  0
   -3.0190    1.9110    0.5300 C   0  0  0  0  0  0  0  0  0  0  0  0
   -2.2530    2.2450    1.2280 H   0  0  0  0  0  0  0  0  0  0  0  0
   -4.3060    2.0830    0.8560 C   0  0  0  0  0  0  0  0  0  0  0  0
   -4.5760    2.5430    1.8020 H   0  0  0  0  0  0  0  0  0  0  0  0
   -5.1130    1.7910    0.1930 H   0  0  0  0  0  0  0  0  0  0  0  0
    0.9020   -3.1880    0.0860 O   0  0  0  0  0  0  0  0  0  0  0  0
   -3.5220   -1.4380   -0.2770 O   0  0  0  0  0  0  0  0  0  0  0  0
   -3.9990   -0.6150   -0.0790 H   0  0  0  0  0  0  0  0  0  0  0  0
   -2.5450    1.2980   -0.7560 C   0  0  0  0  0  0  0  0  0  0  0  0
   -2.0170    2.0620   -1.3380 H   0  0  0  0  0  0  0  0  0  0  0  0
   -3.3890    1.0040   -1.3940 H   0  0  0  0  0  0  0  0  0  0  0  0
    1.8970    3.2320   -0.4840 C   0  0  0  0  0  0  0  0  0  0  0  0
    1.3330    3.7610    0.2920 H   0  0  0  0  0  0  0  0  0  0  0  0
    1.6160    3.6490   -1.4570 H   0  0  0  0  0  0  0  0  0  0  0  0
    2.9590    3.4450   -0.3250 H   0  0  0  0  0  0  0  0  0  0  0  0
    4.4560    0.5140    1.0190 C   0  0  0  0  0  0  0  0  0  0  0  0
    5.3290    1.1130    1.2950 H   0  0  0  0  0  0  0  0  0  0  0  0
    4.8120   -0.4850    0.7550 H   0  0  0  0  0  0  0  0  0  0  0  0
    3.7890    0.4720    1.8870 H   0  0  0  0  0  0  0  0  0  0  0  0
    0.3810   -4.5090    0.0220 C   0  0  0  0  0  0  0  0  0  0  0  0
    1.2250   -5.2040    0.0820 H   0  0  0  0  0  0  0  0  0  0  0  0
   -0.1310   -4.6910   -0.9290 H   0  0  0  0  0  0  0  0  0  0  0  0
   -0.2770   -4.7120    0.8730 H   0  0  0  0  0  0  0  0  0  0  0  0
  1  2  2  0  0  0  0
  1  3  1  0  0  0  0
  1  7  1  0  0  0  0
  2  5  1  0  0  0  0
  2  8  1  0  0  0  0
  3  4  1  0  0  0  0
  3 12  2  0  0  0  0
  4  6  2  0  0  0  0
  4 13  1  0  0  0  0
  5  6  1  0  0  0  0
  6 25  1  0  0  0  0
  7 10  2  0  0  0  0
  7 19  1  0  0  0  0
  8  9  2  0  0  0  0
  8 22  1  0  0  0  0
  9 10  1  0  0  0  0
  9 20  1  0  0  0  0
 10 11  1  0  0  0  0
 13 29  1  0  0  0  0
 14 15  1  0  0  0  0
 14 16  2  0  0  0  0
 14 22  1  0  0  0  0
 16 17  1  0  0  0  0
 16 18  1  0  0  0  0
 19 33  1  0  0  0  0
 20 21  1  0  0  0  0
 22 23  1  0  0  0  0
 22 24  1  0  0  0  0
 25 26  1  0  0  0  0
 25 27  1  0  0  0  0
 25 28  1  0  0  0  0
 29 30  1  0  0  0  0
 29 31  1  0  0  0  0
 29 32  1  0  0  0  0
 33 34  1  0  0  0  0
 33 35  1  0  0  0  0
 33 36  1  0  0  0  0
M  END
>  <IDNUMBER>
AK-087/42718249

>  <NAME>
Maritimin, derivative of

>  <ADD_INFO>
http://www.specs.net/enter.php?specsid=AK-087/42718249

>  <H_ACCEPTORS>
2

>  <H_DONORS>
1

>  <ROTATABLE_BONDS>
4

>  <LOGP>
2.5799999

>  <LOGS>
-2.8399999

>  <TPSA>
64.989998

>  <PRICE>
N05

$$$$
AK-087/42718289
  MOE2011           3D

 21 22  0  0  0  0  0  0  0  0999 V2000
   -0.2430    1.6000   -0.0020 C   0  0  0  0  0  0  0  0  0  0  0  0
    0.7180    0.4970   -0.0010 C   0  0  0  0  0  0  0  0  0  0  0  0
    0.2380   -0.8080   -0.0020 C   0  0  0  0  0  0  0  0  0  0  0  0
   -1.6680    1.2410    0.0000 C   0  0  0  0  0  0  0  0  0  0  0  0
   -2.3910    2.0470    0.0010 H   0  0  0  0  0  0  0  0  0  0  0  0
   -1.1020   -1.1050   -0.0030 O   0  0  0  0  0  0  0  0  0  0  0  0
   -2.0110   -0.0560   -0.0010 C   0  0  0  0  0  0  0  0  0  0  0  0
    2.0920    0.7470    0.0000 C   0  0  0  0  0  0  0  0  0  0  0  0
    0.1540    2.7610   -0.0030 O   0  0  0  0  0  0  0  0  0  0  0  0
    1.1370   -1.8740   -0.0020 C   0  0  0  0  0  0  0  0  0  0  0  0
    0.7710   -2.8980   -0.0030 H   0  0  0  0  0  0  0  0  0  0  0  0
    2.5950    2.0210    0.0010 O   0  0  0  0  0  0  0  0  0  0  0  0
    1.8240    2.6400    0.0000 H   0  0  0  0  0  0  0  0  0  0  0  0
   -3.4440   -0.4870    0.0020 C   0  0  0  0  0  0  0  0  0  0  0  0
   -3.5280   -1.5790    0.0120 H   0  0  0  0  0  0  0  0  0  0  0  0
   -3.9590   -0.1230   -0.8920 H   0  0  0  0  0  0  0  0  0  0  0  0
   -3.9610   -0.1070    0.8900 H   0  0  0  0  0  0  0  0  0  0  0  0
    2.5130   -1.6260    0.0000 C   0  0  0  0  0  0  0  0  0  0  0  0
    3.2140   -2.4570    0.0000 H   0  0  0  0  0  0  0  0  0  0  0  0
    2.9920   -0.3130    0.0000 C   0  0  0  0  0  0  0  0  0  0  0  0
    4.0610   -0.1200    0.0020 H   0  0  0  0  0  0  0  0  0  0  0  0
  1  2  1  0  0  0  0
  1  4  1  0  0  0  0
  1  9  2  0  0  0  0
  2  3  2  0  0  0  0
  2  8  1  0  0  0  0
  3  6  1  0  0  0  0
  3 10  1  0  0  0  0
  4  5  1  0  0  0  0
  4  7  2  0  0  0  0
  6  7  1  0  0  0  0
  7 14  1  0  0  0  0
  8 12  1  0  0  0  0
  8 20  2  0  0  0  0
 10 11  1  0  0  0  0
 10 18  2  0  0  0  0
 12 13  1  0  0  0  0
 14 15  1  0  0  0  0
 14 16  1  0  0  0  0
 14 17  1  0  0  0  0
 18 19  1  0  0  0  0
 18 20  1  0  0  0  0
 20 21  1  0  0  0  0
M  END
>  <IDNUMBER>
AK-087/42718289

>  <NAME>
5-Hydroxy-2-methylchromone

>  <ADD_INFO>
http://www.specs.net/enter.php?specsid=AK-087/42718289

>  <H_ACCEPTORS>
1

>  <H_DONORS>
1

>  <ROTATABLE_BONDS>
0

>  <LOGP>
2.5899999

>  <LOGS>
-2.1199999

>  <TPSA>
46.529999

>  <PRICE>
N05

$$$$
AK-087/42718300
  MOE2011           3D

 27 28  0  0  0  0  0  0  0  0999 V2000
   -0.6860    1.2320   -0.2370 O   0  0  0  0  0  0  0  0  0  0  0  0
    0.6020    0.7740   -0.1660 C   0  0  0  0  0  0  0  0  0  0  0  0
    0.9520   -0.5810   -0.1240 C   0  0  0  0  0  0  0  0  0  0  0  0
   -1.7360    0.2740   -0.0130 C   0  0  0  0  0  0  0  0  0  0  0  0
    2.3060   -0.9380   -0.0390 C   0  0  0  0  0  0  0  0  0  0  0  0
    2.5810   -1.9880    0.0090 H   0  0  0  0  0  0  0  0  0  0  0  0
    1.5930    1.7580   -0.1560 C   0  0  0  0  0  0  0  0  0  0  0  0
    1.3150    2.8070   -0.2000 H   0  0  0  0  0  0  0  0  0  0  0  0
   -0.1030   -1.6470   -0.1370 C   0  0  0  0  0  0  0  0  0  0  0  0
    0.2070   -2.4810   -0.7780 H   0  0  0  0  0  0  0  0  0  0  0  0
   -0.2290   -2.0390    0.8780 H   0  0  0  0  0  0  0  0  0  0  0  0
    3.2850    0.0540   -0.0220 C   0  0  0  0  0  0  0  0  0  0  0  0
   -1.4170   -1.0840   -0.6580 C   0  0  0  0  0  0  0  0  0  0  0  0
   -2.2260   -1.8050   -0.4900 H   0  0  0  0  0  0  0  0  0  0  0  0
   -1.3240   -0.9520   -1.7450 H   0  0  0  0  0  0  0  0  0  0  0  0
    2.9380    1.3980   -0.0830 C   0  0  0  0  0  0  0  0  0  0  0  0
    3.7100    2.1610   -0.0710 H   0  0  0  0  0  0  0  0  0  0  0  0
    4.6110   -0.2580    0.0540 O   0  0  0  0  0  0  0  0  0  0  0  0
    4.7040   -1.2240    0.0870 H   0  0  0  0  0  0  0  0  0  0  0  0
   -2.9870    0.8580   -0.6860 C   0  0  0  0  0  0  0  0  0  0  0  0
   -3.8580    0.2070   -0.5570 H   0  0  0  0  0  0  0  0  0  0  0  0
   -2.8190    1.0050   -1.7590 H   0  0  0  0  0  0  0  0  0  0  0  0
   -3.2270    1.8450   -0.2750 H   0  0  0  0  0  0  0  0  0  0  0  0
   -2.0000    0.1670    1.4970 C   0  0  0  0  0  0  0  0  0  0  0  0
   -2.8130   -0.5340    1.7120 H   0  0  0  0  0  0  0  0  0  0  0  0
   -2.2690    1.1460    1.9110 H   0  0  0  0  0  0  0  0  0  0  0  0
   -1.1100   -0.1560    2.0480 H   0  0  0  0  0  0  0  0  0  0  0  0
  1  2  1  0  0  0  0
  1  4  1  0  0  0  0
  2  3  2  0  0  0  0
  2  7  1  0  0  0  0
  3  5  1  0  0  0  0
  3  9  1  0  0  0  0
  4 13  1  0  0  0  0
  4 20  1  0  0  0  0
  4 24  1  0  0  0  0
  5  6  1  0  0  0  0
  5 12  2  0  0  0  0
  7  8  1  0  0  0  0
  7 16  2  0  0  0  0
  9 10  1  0  0  0  0
  9 11  1  0  0  0  0
  9 13  1  0  0  0  0
 12 16  1  0  0  0  0
 12 18  1  0  0  0  0
 13 14  1  0  0  0  0
 13 15  1  0  0  0  0
 16 17  1  0  0  0  0
 18 19  1  0  0  0  0
 20 21  1  0  0  0  0
 20 22  1  0  0  0  0
 20 23  1  0  0  0  0
 24 25  1  0  0  0  0
 24 26  1  0  0  0  0
 24 27  1  0  0  0  0
M  END
>  <IDNUMBER>
AK-087/42718300

>  <NAME>
6,7-Dihydroxy-2,2-dimethylchromanone, derivative of

>  <ADD_INFO>
http://www.specs.net/enter.php?specsid=AK-087/42718300

>  <H_ACCEPTORS>
0

>  <H_DONORS>
1

>  <ROTATABLE_BONDS>
0

>  <LOGP>
3.3900001

>  <LOGS>
-2.8199999

>  <TPSA>
29.459999

>  <PRICE>
N05

$$$$
AK-087/42718327
  MOE2011           3D

 46 49  0  0  0  0  0  0  0  0999 V2000
    3.6480   -1.0590   -0.0440 C   0  0  0  0  0  0  0  0  0  0  0  0
    3.6630    0.3370   -0.1580 C   0  0  0  0  0  0  0  0  0  0  0  0
    4.9560    1.0330   -0.0800 C   0  0  0  0  0  0  0  0  0  0  0  0
    4.8370   -1.7940    0.1330 O   0  0  0  0  0  0  0  0  0  0  0  0
    6.0660   -1.1630    0.2060 C   0  0  0  0  0  0  0  0  0  0  0  0
    1.2510    0.2610   -0.3900 C   0  0  0  0  0  0  0  0  0  0  0  0
    1.2710   -1.1310   -0.2760 C   0  0  0  0  0  0  0  0  0  0  0  0
   -0.7350   -1.8110    0.6800 C   0  0  0  0  0  0  0  0  0  0  0  0
   -0.3900    1.7890    0.3360 C   0  0  0  0  0  0  0  0  0  0  0  0
    6.0680    0.3040    0.0910 C   0  0  0  0  0  0  0  0  0  0  0  0
    7.0480    0.7650    0.1570 H   0  0  0  0  0  0  0  0  0  0  0  0
    2.4710   -1.8060   -0.1100 C   0  0  0  0  0  0  0  0  0  0  0  0
    2.4970   -2.8880   -0.0360 H   0  0  0  0  0  0  0  0  0  0  0  0
    2.4400    0.9950   -0.3470 C   0  0  0  0  0  0  0  0  0  0  0  0
    2.3930    2.0750   -0.4550 H   0  0  0  0  0  0  0  0  0  0  0  0
    0.0190    0.8860   -0.6280 O   0  0  0  0  0  0  0  0  0  0  0  0
    0.1030   -1.8840   -0.4160 O   0  0  0  0  0  0  0  0  0  0  0  0
   -0.5170   -1.2530    1.7440 O   0  0  0  0  0  0  0  0  0  0  0  0
    0.2630    2.2090    1.2800 O   0  0  0  0  0  0  0  0  0  0  0  0
    7.1120   -1.7830    0.3580 O   0  0  0  0  0  0  0  0  0  0  0  0
   -1.7890    2.2140    0.0620 C   0  0  0  0  0  0  0  0  0  0  0  0
   -2.0160   -2.4900    0.3660 C   0  0  0  0  0  0  0  0  0  0  0  0
    5.0120    2.5290   -0.1860 C   0  0  0  0  0  0  0  0  0  0  0  0
    4.6220    2.8660   -1.1520 H   0  0  0  0  0  0  0  0  0  0  0  0
    6.0380    2.9050   -0.1040 H   0  0  0  0  0  0  0  0  0  0  0  0
    4.4310    2.9980    0.6150 H   0  0  0  0  0  0  0  0  0  0  0  0
   -2.5720    1.6330   -0.9460 C   0  0  0  0  0  0  0  0  0  0  0  0
   -2.1850    0.8420   -1.5840 H   0  0  0  0  0  0  0  0  0  0  0  0
   -2.3390    3.2230    0.8650 C   0  0  0  0  0  0  0  0  0  0  0  0
   -1.7510    3.6820    1.6570 H   0  0  0  0  0  0  0  0  0  0  0  0
   -2.1530   -3.3660   -0.7190 C   0  0  0  0  0  0  0  0  0  0  0  0
   -1.3150   -3.5950   -1.3720 H   0  0  0  0  0  0  0  0  0  0  0  0
   -3.1170   -2.2310    1.1940 C   0  0  0  0  0  0  0  0  0  0  0  0
   -3.0270   -1.5550    2.0410 H   0  0  0  0  0  0  0  0  0  0  0  0
   -3.6510    3.6510    0.6570 C   0  0  0  0  0  0  0  0  0  0  0  0
   -4.0710    4.4350    1.2810 H   0  0  0  0  0  0  0  0  0  0  0  0
   -3.3860   -3.9710   -0.9730 C   0  0  0  0  0  0  0  0  0  0  0  0
   -3.4920   -4.6510   -1.8140 H   0  0  0  0  0  0  0  0  0  0  0  0
   -4.3460   -2.8380    0.9340 C   0  0  0  0  0  0  0  0  0  0  0  0
   -5.1990   -2.6350    1.5760 H   0  0  0  0  0  0  0  0  0  0  0  0
   -3.8850    2.0650   -1.1500 C   0  0  0  0  0  0  0  0  0  0  0  0
   -4.4900    1.6150   -1.9320 H   0  0  0  0  0  0  0  0  0  0  0  0
   -4.4220    3.0730   -0.3500 C   0  0  0  0  0  0  0  0  0  0  0  0
   -5.4440    3.4070   -0.5100 H   0  0  0  0  0  0  0  0  0  0  0  0
   -4.4790   -3.7060   -0.1490 C   0  0  0  0  0  0  0  0  0  0  0  0
   -5.4370   -4.1800   -0.3500 H   0  0  0  0  0  0  0  0  0  0  0  0
  1  2  1  0  0  0  0
  1  4  1  0  0  0  0
  1 12  2  0  0  0  0
  2  3  1  0  0  0  0
  2 14  2  0  0  0  0
  3 10  2  0  0  0  0
  3 23  1  0  0  0  0
  4  5  1  0  0  0  0
  5 10  1  0  0  0  0
  5 20  2  0  0  0  0
  6  7  2  0  0  0  0
  6 14  1  0  0  0  0
  6 16  1  0  0  0  0
  7 12  1  0  0  0  0
  7 17  1  0  0  0  0
  8 17  1  0  0  0  0
  8 18  2  0  0  0  0
  8 22  1  0  0  0  0
  9 16  1  0  0  0  0
  9 19  2  0  0  0  0
  9 21  1  0  0  0  0
 10 11  1  0  0  0  0
 12 13  1  0  0  0  0
 14 15  1  0  0  0  0
 21 27  2  0  0  0  0
 21 29  1  0  0  0  0
 22 31  2  0  0  0  0
 22 33  1  0  0  0  0
 23 24  1  0  0  0  0
 23 25  1  0  0  0  0
 23 26  1  0  0  0  0
 27 28  1  0  0  0  0
 27 41  1  0  0  0  0
 29 30  1  0  0  0  0
 29 35  2  0  0  0  0
 31 32  1  0  0  0  0
 31 37  1  0  0  0  0
 33 34  1  0  0  0  0
 33 39  2  0  0  0  0
 35 36  1  0  0  0  0
 35 43  1  0  0  0  0
 37 38  1  0  0  0  0
 37 45  2  0  0  0  0
 39 40  1  0  0  0  0
 39 45  1  0  0  0  0
 41 42  1  0  0  0  0
 41 43  2  0  0  0  0
 43 44  1  0  0  0  0
 45 46  1  0  0  0  0
M  END
>  <IDNUMBER>
AK-087/42718327

>  <NAME>
6,7-Dihydroxy-4-methylcoumarin, derivative of

>  <ADD_INFO>
http://www.specs.net/enter.php?specsid=AK-087/42718327

>  <H_ACCEPTORS>
3

>  <H_DONORS>
0

>  <ROTATABLE_BONDS>
6

>  <LOGP>
4.8400002

>  <LOGS>
-6.2600002

>  <TPSA>
78.900002

>  <PRICE>
N05

$$$$
AK-087/42718331
  MOE2011           3D

 32 34  0  0  0  0  0  0  0  0999 V2000
   -1.3350   -0.1630    0.0240 C   0  0  0  0  0  0  0  0  0  0  0  0
   -1.8880    1.1160   -0.0590 C   0  0  0  0  0  0  0  0  0  0  0  0
    0.0270   -0.3570    0.0330 O   0  0  0  0  0  0  0  0  0  0  0  0
   -0.9950    2.2740   -0.1330 C   0  0  0  0  0  0  0  0  0  0  0  0
    0.8700    0.7420   -0.0330 C   0  0  0  0  0  0  0  0  0  0  0  0
    0.4490    2.0130   -0.1200 C   0  0  0  0  0  0  0  0  0  0  0  0
    1.1080    2.8680   -0.1940 H   0  0  0  0  0  0  0  0  0  0  0  0
   -3.2720    1.2950   -0.0730 C   0  0  0  0  0  0  0  0  0  0  0  0
   -2.1700   -1.2930    0.1000 C   0  0  0  0  0  0  0  0  0  0  0  0
   -3.5620   -1.0870    0.0780 C   0  0  0  0  0  0  0  0  0  0  0  0
   -4.1120    0.1930   -0.0060 C   0  0  0  0  0  0  0  0  0  0  0  0
   -5.1900    0.3260   -0.0190 H   0  0  0  0  0  0  0  0  0  0  0  0
   -1.4620    3.4070   -0.2030 O   0  0  0  0  0  0  0  0  0  0  0  0
    2.3060    0.3990   -0.0270 C   0  0  0  0  0  0  0  0  0  0  0  0
   -3.8450    2.5370   -0.1530 O   0  0  0  0  0  0  0  0  0  0  0  0
   -3.1100    3.1970   -0.1920 H   0  0  0  0  0  0  0  0  0  0  0  0
   -4.4650   -2.1140    0.1380 O   0  0  0  0  0  0  0  0  0  0  0  0
   -4.0000   -2.9640    0.1720 H   0  0  0  0  0  0  0  0  0  0  0  0
   -1.5920   -2.6790    0.1930 C   0  0  0  0  0  0  0  0  0  0  0  0
   -1.9620   -3.1800    1.0940 H   0  0  0  0  0  0  0  0  0  0  0  0
   -0.5000   -2.6830    0.2520 H   0  0  0  0  0  0  0  0  0  0  0  0
   -1.8750   -3.2620   -0.6890 H   0  0  0  0  0  0  0  0  0  0  0  0
    3.2350    1.1270    0.7340 C   0  0  0  0  0  0  0  0  0  0  0  0
    2.9160    1.9680    1.3460 H   0  0  0  0  0  0  0  0  0  0  0  0
    2.7670   -0.6970   -0.7740 C   0  0  0  0  0  0  0  0  0  0  0  0
    2.0740   -1.2870   -1.3710 H   0  0  0  0  0  0  0  0  0  0  0  0
    4.1200   -1.0450   -0.7750 C   0  0  0  0  0  0  0  0  0  0  0  0
    4.4620   -1.8930   -1.3610 H   0  0  0  0  0  0  0  0  0  0  0  0
    4.5880    0.7780    0.7340 C   0  0  0  0  0  0  0  0  0  0  0  0
    5.2970    1.3500    1.3280 H   0  0  0  0  0  0  0  0  0  0  0  0
    5.0300   -0.3060   -0.0220 C   0  0  0  0  0  0  0  0  0  0  0  0
    6.0820   -0.5770   -0.0210 H   0  0  0  0  0  0  0  0  0  0  0  0
  1  2  2  0  0  0  0
  1  3  1  0  0  0  0
  1  9  1  0  0  0  0
  2  4  1  0  0  0  0
  2  8  1  0  0  0  0
  3  5  1  0  0  0  0
  4  6  1  0  0  0  0
  4 13  2  0  0  0  0
  5  6  2  0  0  0  0
  5 14  1  0  0  0  0
  6  7  1  0  0  0  0
  8 11  2  0  0  0  0
  8 15  1  0  0  0  0
  9 10  2  0  0  0  0
  9 19  1  0  0  0  0
 10 11  1  0  0  0  0
 10 17  1  0  0  0  0
 11 12  1  0  0  0  0
 14 23  2  0  0  0  0
 14 25  1  0  0  0  0
 15 16  1  0  0  0  0
 17 18  1  0  0  0  0
 19 20  1  0  0  0  0
 19 21  1  0  0  0  0
 19 22  1  0  0  0  0
 23 24  1  0  0  0  0
 23 29  1  0  0  0  0
 25 26  1  0  0  0  0
 25 27  2  0  0  0  0
 27 28  1  0  0  0  0
 27 31  1  0  0  0  0
 29 30  1  0  0  0  0
 29 31  2  0  0  0  0
 31 32  1  0  0  0  0
M  END
>  <IDNUMBER>
AK-087/42718331

>  <NAME>
Cryptochrysin

>  <ADD_INFO>
http://www.specs.net/enter.php?specsid=AK-087/42718331

>  <H_ACCEPTORS>
1

>  <H_DONORS>
2

>  <ROTATABLE_BONDS>
1

>  <LOGP>
3.8699999

>  <LOGS>
-3.8800001

>  <TPSA>
66.760002

>  <PRICE>
N05

$$$$
AK-087/42718332
  MOE2011           3D

 38 40  0  0  0  0  0  0  0  0999 V2000
   -0.3390   -0.1750   -0.0530 C   0  0  0  0  0  0  0  0  0  0  0  0
   -0.8950    1.1080    0.0330 C   0  0  0  0  0  0  0  0  0  0  0  0
    1.0190   -0.3960   -0.0590 O   0  0  0  0  0  0  0  0  0  0  0  0
    0.0390    2.2610    0.1050 C   0  0  0  0  0  0  0  0  0  0  0  0
    1.8810    0.6790    0.0120 C   0  0  0  0  0  0  0  0  0  0  0  0
    1.4800    1.9520    0.0990 C   0  0  0  0  0  0  0  0  0  0  0  0
    2.1560    2.7950    0.1780 H   0  0  0  0  0  0  0  0  0  0  0  0
   -2.2920    1.2650    0.0530 C   0  0  0  0  0  0  0  0  0  0  0  0
   -1.1590   -1.3170   -0.1310 C   0  0  0  0  0  0  0  0  0  0  0  0
   -2.5550   -1.1600   -0.0770 C   0  0  0  0  0  0  0  0  0  0  0  0
   -3.1070    0.1250    0.0050 C   0  0  0  0  0  0  0  0  0  0  0  0
   -4.1840    0.2370    0.0390 H   0  0  0  0  0  0  0  0  0  0  0  0
   -0.3060    3.4340    0.1700 O   0  0  0  0  0  0  0  0  0  0  0  0
    3.3110    0.3100    0.0160 C   0  0  0  0  0  0  0  0  0  0  0  0
   -2.7850    2.5400    0.1360 O   0  0  0  0  0  0  0  0  0  0  0  0
   -3.2870   -2.3190   -0.1070 O   0  0  0  0  0  0  0  0  0  0  0  0
   -0.5500   -2.6960   -0.2010 C   0  0  0  0  0  0  0  0  0  0  0  0
   -1.1700   -3.3790   -0.7910 H   0  0  0  0  0  0  0  0  0  0  0  0
   -0.4330   -3.1010    0.8090 H   0  0  0  0  0  0  0  0  0  0  0  0
    0.4300   -2.6820   -0.6900 H   0  0  0  0  0  0  0  0  0  0  0  0
    4.2620    1.0350   -0.7170 C   0  0  0  0  0  0  0  0  0  0  0  0
    3.9670    1.8930   -1.3180 H   0  0  0  0  0  0  0  0  0  0  0  0
    3.7420   -0.8080    0.7470 C   0  0  0  0  0  0  0  0  0  0  0  0
    3.0320   -1.3980    1.3230 H   0  0  0  0  0  0  0  0  0  0  0  0
   -4.1910    2.7350    0.0650 C   0  0  0  0  0  0  0  0  0  0  0  0
   -4.3800    3.8120    0.0900 H   0  0  0  0  0  0  0  0  0  0  0  0
   -4.6930    2.2890    0.9290 H   0  0  0  0  0  0  0  0  0  0  0  0
   -4.5980    2.3470   -0.8750 H   0  0  0  0  0  0  0  0  0  0  0  0
   -4.7020   -2.2180   -0.0130 C   0  0  0  0  0  0  0  0  0  0  0  0
   -5.1110   -3.2330   -0.0330 H   0  0  0  0  0  0  0  0  0  0  0  0
   -5.1160   -1.6760   -0.8690 H   0  0  0  0  0  0  0  0  0  0  0  0
   -5.0030   -1.7580    0.9340 H   0  0  0  0  0  0  0  0  0  0  0  0
    5.0890   -1.1800    0.7590 C   0  0  0  0  0  0  0  0  0  0  0  0
    5.4060   -2.0460    1.3340 H   0  0  0  0  0  0  0  0  0  0  0  0
    5.6100    0.6630   -0.7050 C   0  0  0  0  0  0  0  0  0  0  0  0
    6.3360    1.2360   -1.2770 H   0  0  0  0  0  0  0  0  0  0  0  0
    6.0230   -0.4420    0.0350 C   0  0  0  0  0  0  0  0  0  0  0  0
    7.0710   -0.7310    0.0440 H   0  0  0  0  0  0  0  0  0  0  0  0
  1  2  2  0  0  0  0
  1  3  1  0  0  0  0
  1  9  1  0  0  0  0
  2  4  1  0  0  0  0
  2  8  1  0  0  0  0
  3  5  1  0  0  0  0
  4  6  1  0  0  0  0
  4 13  2  0  0  0  0
  5  6  2  0  0  0  0
  5 14  1  0  0  0  0
  6  7  1  0  0  0  0
  8 11  2  0  0  0  0
  8 15  1  0  0  0  0
  9 10  2  0  0  0  0
  9 17  1  0  0  0  0
 10 11  1  0  0  0  0
 10 16  1  0  0  0  0
 11 12  1  0  0  0  0
 14 21  2  0  0  0  0
 14 23  1  0  0  0  0
 15 25  1  0  0  0  0
 16 29  1  0  0  0  0
 17 18  1  0  0  0  0
 17 19  1  0  0  0  0
 17 20  1  0  0  0  0
 21 22  1  0  0  0  0
 21 35  1  0  0  0  0
 23 24  1  0  0  0  0
 23 33  2  0  0  0  0
 25 26  1  0  0  0  0
 25 27  1  0  0  0  0
 25 28  1  0  0  0  0
 29 30  1  0  0  0  0
 29 31  1  0  0  0  0
 29 32  1  0  0  0  0
 33 34  1  0  0  0  0
 33 37  1  0  0  0  0
 35 36  1  0  0  0  0
 35 37  2  0  0  0  0
 37 38  1  0  0  0  0
M  END
>  <IDNUMBER>
AK-087/42718332

>  <NAME>
Cryptochrysin, Di-methyl ether

>  <ADD_INFO>
http://www.specs.net/enter.php?specsid=AK-087/42718332

>  <H_ACCEPTORS>
1

>  <H_DONORS>
0

>  <ROTATABLE_BONDS>
3

>  <LOGP>
4.2199998

>  <LOGS>
-4.96

>  <TPSA>
44.759998

>  <PRICE>
N05

$$$$
AK-087/42718359
  MOE2011           3D

 33 34  0  0  0  0  0  0  0  0999 V2000
    0.2750    0.8910   -0.2530 C   0  0  0  0  0  0  0  0  0  0  0  0
   -0.1780   -0.4160   -0.3210 C   0  0  0  0  0  0  0  0  0  0  0  0
    1.7170    1.1480   -0.2630 C   0  0  0  0  0  0  0  0  0  0  0  0
    2.6170   -0.0350   -0.3250 C   0  0  0  0  0  0  0  0  0  0  0  0
    0.6780   -1.4820   -0.4080 O   0  0  0  0  0  0  0  0  0  0  0  0
    2.0450   -1.2520   -0.4110 C   0  0  0  0  0  0  0  0  0  0  0  0
   -0.6370    1.9490   -0.1800 C   0  0  0  0  0  0  0  0  0  0  0  0
   -1.5560   -0.6650   -0.3010 C   0  0  0  0  0  0  0  0  0  0  0  0
   -2.4840    0.3940   -0.2490 C   0  0  0  0  0  0  0  0  0  0  0  0
   -2.0090    1.7070   -0.1790 C   0  0  0  0  0  0  0  0  0  0  0  0
   -2.6760    2.5610   -0.1270 H   0  0  0  0  0  0  0  0  0  0  0  0
    2.0990    2.3160   -0.2260 O   0  0  0  0  0  0  0  0  0  0  0  0
    3.9930    0.1060   -0.3530 O   0  0  0  0  0  0  0  0  0  0  0  0
   -0.2240    3.2550   -0.1140 O   0  0  0  0  0  0  0  0  0  0  0  0
    0.7660    3.2500   -0.1450 H   0  0  0  0  0  0  0  0  0  0  0  0
   -1.9960   -1.9640   -0.4080 O   0  0  0  0  0  0  0  0  0  0  0  0
   -3.8080    0.0400   -0.2720 O   0  0  0  0  0  0  0  0  0  0  0  0
    2.8340   -2.5250   -0.5120 C   0  0  0  0  0  0  0  0  0  0  0  0
    2.5880   -3.1850    0.3260 H   0  0  0  0  0  0  0  0  0  0  0  0
    3.9160   -2.3640   -0.5000 H   0  0  0  0  0  0  0  0  0  0  0  0
    2.5860   -3.0450   -1.4430 H   0  0  0  0  0  0  0  0  0  0  0  0
    4.5120    1.0030    0.6240 C   0  0  0  0  0  0  0  0  0  0  0  0
    5.5580    0.7350    0.8010 H   0  0  0  0  0  0  0  0  0  0  0  0
    3.9780    0.9260    1.5780 H   0  0  0  0  0  0  0  0  0  0  0  0
    4.4940    2.0300    0.2490 H   0  0  0  0  0  0  0  0  0  0  0  0
   -2.2480   -2.5040    0.8890 C   0  0  0  0  0  0  0  0  0  0  0  0
   -2.5580   -3.5460    0.7640 H   0  0  0  0  0  0  0  0  0  0  0  0
   -3.0580   -1.9690    1.3960 H   0  0  0  0  0  0  0  0  0  0  0  0
   -1.3420   -2.4930    1.5060 H   0  0  0  0  0  0  0  0  0  0  0  0
   -4.7650    1.0910   -0.2830 C   0  0  0  0  0  0  0  0  0  0  0  0
   -5.7590    0.6360   -0.3330 H   0  0  0  0  0  0  0  0  0  0  0  0
   -4.6450    1.7270   -1.1660 H   0  0  0  0  0  0  0  0  0  0  0  0
   -4.7140    1.6790    0.6400 H   0  0  0  0  0  0  0  0  0  0  0  0
  1  2  2  0  0  0  0
  1  3  1  0  0  0  0
  1  7  1  0  0  0  0
  2  5  1  0  0  0  0
  2  8  1  0  0  0  0
  3  4  1  0  0  0  0
  3 12  2  0  0  0  0
  4  6  2  0  0  0  0
  4 13  1  0  0  0  0
  5  6  1  0  0  0  0
  6 18  1  0  0  0  0
  7 10  2  0  0  0  0
  7 14  1  0  0  0  0
  8  9  2  0  0  0  0
  8 16  1  0  0  0  0
  9 10  1  0  0  0  0
  9 17  1  0  0  0  0
 10 11  1  0  0  0  0
 13 22  1  0  0  0  0
 14 15  1  0  0  0  0
 16 26  1  0  0  0  0
 17 30  1  0  0  0  0
 18 19  1  0  0  0  0
 18 20  1  0  0  0  0
 18 21  1  0  0  0  0
 22 23  1  0  0  0  0
 22 24  1  0  0  0  0
 22 25  1  0  0  0  0
 26 27  1  0  0  0  0
 26 28  1  0  0  0  0
 26 29  1  0  0  0  0
 30 31  1  0  0  0  0
 30 32  1  0  0  0  0
 30 33  1  0  0  0  0
M  END
>  <IDNUMBER>
AK-087/42718359

>  <NAME>
Methylgnaphaliin, derivative of

>  <ADD_INFO>
http://www.specs.net/enter.php?specsid=AK-087/42718359

>  <H_ACCEPTORS>
2

>  <H_DONORS>
1

>  <ROTATABLE_BONDS>
3

>  <LOGP>
2.04

>  <LOGS>
-2.3099999

>  <TPSA>
74.220001

>  <PRICE>
N05

$$$$
AK-087/42718360
  MOE2011           3D

 42 44  0  0  0  0  0  0  0  0999 V2000
   -3.5540    0.5520   -0.2240 C   0  0  0  0  0  0  0  0  0  0  0  0
   -2.0720    0.5220   -0.1200 C   0  0  0  0  0  0  0  0  0  0  0  0
   -4.2540   -0.7690   -0.2020 C   0  0  0  0  0  0  0  0  0  0  0  0
   -1.4470   -0.7250   -0.1680 C   0  0  0  0  0  0  0  0  0  0  0  0
   -3.5120   -1.8880   -0.2590 C   0  0  0  0  0  0  0  0  0  0  0  0
   -2.1310   -1.9070   -0.2870 O   0  0  0  0  0  0  0  0  0  0  0  0
   -1.2880    1.6840    0.0070 C   0  0  0  0  0  0  0  0  0  0  0  0
   -0.0550   -0.8400   -0.1030 C   0  0  0  0  0  0  0  0  0  0  0  0
    0.3810   -1.8330   -0.1450 H   0  0  0  0  0  0  0  0  0  0  0  0
    0.1060    1.5550    0.0780 C   0  0  0  0  0  0  0  0  0  0  0  0
    0.7500    2.4240    0.1860 H   0  0  0  0  0  0  0  0  0  0  0  0
   -4.1840    1.5950   -0.3410 O   0  0  0  0  0  0  0  0  0  0  0  0
    0.7270    0.3030    0.0170 C   0  0  0  0  0  0  0  0  0  0  0  0
   -5.6380   -0.8460   -0.2010 O   0  0  0  0  0  0  0  0  0  0  0  0
    2.0920    0.3440    0.0920 O   0  0  0  0  0  0  0  0  0  0  0  0
   -1.9360    2.8870    0.0770 O   0  0  0  0  0  0  0  0  0  0  0  0
    2.7980   -0.8890   -0.0490 C   0  0  0  0  0  0  0  0  0  0  0  0
    2.5530   -1.5540    0.7880 H   0  0  0  0  0  0  0  0  0  0  0  0
    2.5390   -1.3830   -0.9940 H   0  0  0  0  0  0  0  0  0  0  0  0
   -4.1010   -3.2680   -0.2990 C   0  0  0  0  0  0  0  0  0  0  0  0
   -3.8090   -3.7720   -1.2260 H   0  0  0  0  0  0  0  0  0  0  0  0
   -5.1940   -3.2720   -0.2480 H   0  0  0  0  0  0  0  0  0  0  0  0
   -3.7290   -3.8590    0.5440 H   0  0  0  0  0  0  0  0  0  0  0  0
    4.2770   -0.5900   -0.0600 C   0  0  0  0  0  0  0  0  0  0  0  0
   -6.2680   -0.0130    0.7690 C   0  0  0  0  0  0  0  0  0  0  0  0
   -7.2430   -0.4530    1.0010 H   0  0  0  0  0  0  0  0  0  0  0  0
   -6.4460    0.9850    0.3610 H   0  0  0  0  0  0  0  0  0  0  0  0
   -5.6940    0.0430    1.7000 H   0  0  0  0  0  0  0  0  0  0  0  0
   -1.1560    4.0750    0.0560 C   0  0  0  0  0  0  0  0  0  0  0  0
   -1.8440    4.9250    0.0320 H   0  0  0  0  0  0  0  0  0  0  0  0
   -0.5340    4.1260   -0.8440 H   0  0  0  0  0  0  0  0  0  0  0  0
   -0.5510    4.1620    0.9640 H   0  0  0  0  0  0  0  0  0  0  0  0
    5.1250   -1.1110    0.9270 C   0  0  0  0  0  0  0  0  0  0  0  0
    4.7300   -1.7350    1.7250 H   0  0  0  0  0  0  0  0  0  0  0  0
    4.8260    0.2130   -1.0720 C   0  0  0  0  0  0  0  0  0  0  0  0
    4.1840    0.6320   -1.8440 H   0  0  0  0  0  0  0  0  0  0  0  0
    6.1940    0.4900   -1.0950 C   0  0  0  0  0  0  0  0  0  0  0  0
    6.6070    1.1150   -1.8810 H   0  0  0  0  0  0  0  0  0  0  0  0
    6.4930   -0.8320    0.9020 C   0  0  0  0  0  0  0  0  0  0  0  0
    7.1440   -1.2390    1.6720 H   0  0  0  0  0  0  0  0  0  0  0  0
    7.0270   -0.0330   -0.1080 C   0  0  0  0  0  0  0  0  0  0  0  0
    8.0920    0.1820   -0.1250 H   0  0  0  0  0  0  0  0  0  0  0  0
  1  2  1  0  0  0  0
  1  3  1  0  0  0  0
  1 12  2  0  0  0  0
  2  4  2  0  0  0  0
  2  7  1  0  0  0  0
  3  5  2  0  0  0  0
  3 14  1  0  0  0  0
  4  6  1  0  0  0  0
  4  8  1  0  0  0  0
  5  6  1  0  0  0  0
  5 20  1  0  0  0  0
  7 10  2  0  0  0  0
  7 16  1  0  0  0  0
  8  9  1  0  0  0  0
  8 13  2  0  0  0  0
 10 11  1  0  0  0  0
 10 13  1  0  0  0  0
 13 15  1  0  0  0  0
 14 25  1  0  0  0  0
 15 17  1  0  0  0  0
 16 29  1  0  0  0  0
 17 18  1  0  0  0  0
 17 19  1  0  0  0  0
 17 24  1  0  0  0  0
 20 21  1  0  0  0  0
 20 22  1  0  0  0  0
 20 23  1  0  0  0  0
 24 33  2  0  0  0  0
 24 35  1  0  0  0  0
 25 26  1  0  0  0  0
 25 27  1  0  0  0  0
 25 28  1  0  0  0  0
 29 30  1  0  0  0  0
 29 31  1  0  0  0  0
 29 32  1  0  0  0  0
 33 34  1  0  0  0  0
 33 39  1  0  0  0  0
 35 36  1  0  0  0  0
 35 37  2  0  0  0  0
 37 38  1  0  0  0  0
 37 41  1  0  0  0  0
 39 40  1  0  0  0  0
 39 41  2  0  0  0  0
 41 42  1  0  0  0  0
M  END
>  <IDNUMBER>
AK-087/42718360

>  <NAME>
Quercetin, derivative of

>  <ADD_INFO>
http://www.specs.net/enter.php?specsid=AK-087/42718360

>  <H_ACCEPTORS>
2

>  <H_DONORS>
0

>  <ROTATABLE_BONDS>
5

>  <LOGP>
3.45

>  <LOGS>
-4.5300002

>  <TPSA>
53.990002

>  <PRICE>
N05

$$$$
AK-087/42718376
  MOE2011           3D

 44 46  0  0  0  0  0  0  0  0999 V2000
   -2.2700   -1.8880    0.2090 C   0  0  0  0  0  0  0  0  0  0  0  0
   -3.5830   -2.2420   -0.1570 C   0  0  0  0  0  0  0  0  0  0  0  0
    0.1550   -2.7680    0.5700 C   0  0  0  0  0  0  0  0  0  0  0  0
    0.6590   -3.3270    1.3520 H   0  0  0  0  0  0  0  0  0  0  0  0
    0.8300   -2.0220   -0.3150 C   0  0  0  0  0  0  0  0  0  0  0  0
    0.3330   -1.4980   -1.1270 H   0  0  0  0  0  0  0  0  0  0  0  0
   -1.3090   -2.9840    0.4990 C   0  0  0  0  0  0  0  0  0  0  0  0
   -4.5450   -1.2730   -0.4350 C   0  0  0  0  0  0  0  0  0  0  0  0
   -5.5450   -1.5820   -0.7200 H   0  0  0  0  0  0  0  0  0  0  0  0
   -1.9490   -0.5320    0.3370 C   0  0  0  0  0  0  0  0  0  0  0  0
   -0.9660   -0.2010    0.6620 H   0  0  0  0  0  0  0  0  0  0  0  0
    2.2850   -1.8090   -0.2330 C   0  0  0  0  0  0  0  0  0  0  0  0
    1.8850    0.5120   -0.2720 O   0  0  0  0  0  0  0  0  0  0  0  0
    2.8090   -0.5000   -0.2240 C   0  0  0  0  0  0  0  0  0  0  0  0
   -1.7640   -4.1140    0.6890 O   0  0  0  0  0  0  0  0  0  0  0  0
   -4.1980    0.0680   -0.3260 C   0  0  0  0  0  0  0  0  0  0  0  0
   -3.9870   -3.5520   -0.2420 O   0  0  0  0  0  0  0  0  0  0  0  0
   -3.2480   -4.1060    0.1150 H   0  0  0  0  0  0  0  0  0  0  0  0
   -2.9130    0.4430    0.0600 C   0  0  0  0  0  0  0  0  0  0  0  0
   -2.6630    1.4970    0.1540 H   0  0  0  0  0  0  0  0  0  0  0  0
    2.3350    1.8400   -0.0230 C   0  0  0  0  0  0  0  0  0  0  0  0
    2.9010    1.8960    0.9150 H   0  0  0  0  0  0  0  0  0  0  0  0
    2.9690    2.1930   -0.8450 H   0  0  0  0  0  0  0  0  0  0  0  0
    1.1070    2.7080    0.0760 C   0  0  0  0  0  0  0  0  0  0  0  0
   -5.1020    1.0580   -0.5780 O   0  0  0  0  0  0  0  0  0  0  0  0
   -5.9520    0.6530   -0.8210 H   0  0  0  0  0  0  0  0  0  0  0  0
    3.1610   -2.9040   -0.1900 C   0  0  0  0  0  0  0  0  0  0  0  0
    2.7760   -3.9210   -0.2120 H   0  0  0  0  0  0  0  0  0  0  0  0
    4.1940   -0.3080   -0.1740 C   0  0  0  0  0  0  0  0  0  0  0  0
    4.6380    0.6820   -0.1790 H   0  0  0  0  0  0  0  0  0  0  0  0
    0.4720    3.1730   -1.0850 C   0  0  0  0  0  0  0  0  0  0  0  0
    0.8750    2.9280   -2.0660 H   0  0  0  0  0  0  0  0  0  0  0  0
    0.5480    3.0140    1.3240 C   0  0  0  0  0  0  0  0  0  0  0  0
    1.0090    2.6470    2.2390 H   0  0  0  0  0  0  0  0  0  0  0  0
    5.0530   -1.4080   -0.1230 C   0  0  0  0  0  0  0  0  0  0  0  0
    6.1290   -1.2530   -0.0830 H   0  0  0  0  0  0  0  0  0  0  0  0
    4.5390   -2.7030   -0.1310 C   0  0  0  0  0  0  0  0  0  0  0  0
    5.2120   -3.5560   -0.0980 H   0  0  0  0  0  0  0  0  0  0  0  0
   -0.6120    3.7850    1.4100 C   0  0  0  0  0  0  0  0  0  0  0  0
   -1.0400    4.0170    2.3820 H   0  0  0  0  0  0  0  0  0  0  0  0
   -0.6880    3.9430   -0.9980 C   0  0  0  0  0  0  0  0  0  0  0  0
   -1.1750    4.2950   -1.9030 H   0  0  0  0  0  0  0  0  0  0  0  0
   -1.2280    4.2510    0.2500 C   0  0  0  0  0  0  0  0  0  0  0  0
   -2.1360    4.8460    0.3170 H   0  0  0  0  0  0  0  0  0  0  0  0
  1  2  2  0  0  0  0
  1  7  1  0  0  0  0
  1 10  1  0  0  0  0
  2  8  1  0  0  0  0
  2 17  1  0  0  0  0
  3  4  1  0  0  0  0
  3  5  2  0  0  0  0
  3  7  1  0  0  0  0
  5  6  1  0  0  0  0
  5 12  1  0  0  0  0
  7 15  2  0  0  0  0
  8  9  1  0  0  0  0
  8 16  2  0  0  0  0
 10 11  1  0  0  0  0
 10 19  2  0  0  0  0
 12 14  2  0  0  0  0
 12 27  1  0  0  0  0
 13 14  1  0  0  0  0
 13 21  1  0  0  0  0
 14 29  1  0  0  0  0
 16 19  1  0  0  0  0
 16 25  1  0  0  0  0
 17 18  1  0  0  0  0
 19 20  1  0  0  0  0
 21 22  1  0  0  0  0
 21 23  1  0  0  0  0
 21 24  1  0  0  0  0
 24 31  2  0  0  0  0
 24 33  1  0  0  0  0
 25 26  1  0  0  0  0
 27 28  1  0  0  0  0
 27 37  2  0  0  0  0
 29 30  1  0  0  0  0
 29 35  2  0  0  0  0
 31 32  1  0  0  0  0
 31 41  1  0  0  0  0
 33 34  1  0  0  0  0
 33 39  2  0  0  0  0
 35 36  1  0  0  0  0
 35 37  1  0  0  0  0
 37 38  1  0  0  0  0
 39 40  1  0  0  0  0
 39 43  1  0  0  0  0
 41 42  1  0  0  0  0
 41 43  2  0  0  0  0
 43 44  1  0  0  0  0
M  END
>  <IDNUMBER>
AK-087/42718376

>  <NAME>
2-Benzyloxy-2',4'-dihydroxychalcone

>  <ADD_INFO>
http://www.specs.net/enter.php?specsid=AK-087/42718376

>  <H_ACCEPTORS>
1

>  <H_DONORS>
2

>  <ROTATABLE_BONDS>
6

>  <LOGP>
5.2600002

>  <LOGS>
-5.6399999

>  <TPSA>
66.760002

>  <PRICE>
N05

$$$$
AK-087/42718409
  MOE2011           3D

 35 37  0  0  0  0  0  0  0  0999 V2000
    1.0930    1.2310    0.0630 C   0  0  0  0  0  0  0  0  0  0  0  0
    0.1320    2.3320    0.1450 C   0  0  0  0  0  0  0  0  0  0  0  0
    2.4710    1.4760    0.0590 C   0  0  0  0  0  0  0  0  0  0  0  0
    0.6080   -0.0670   -0.0090 C   0  0  0  0  0  0  0  0  0  0  0  0
   -1.2960    1.9830    0.1280 C   0  0  0  0  0  0  0  0  0  0  0  0
   -2.0040    2.7990    0.1940 H   0  0  0  0  0  0  0  0  0  0  0  0
   -1.6410    0.6890    0.0430 C   0  0  0  0  0  0  0  0  0  0  0  0
   -0.7340   -0.3590   -0.0120 O   0  0  0  0  0  0  0  0  0  0  0  0
    3.3790    0.4110   -0.0270 C   0  0  0  0  0  0  0  0  0  0  0  0
    1.4960   -1.1390   -0.0760 C   0  0  0  0  0  0  0  0  0  0  0  0
    1.0830   -2.1410   -0.1250 H   0  0  0  0  0  0  0  0  0  0  0  0
    2.8790   -0.9100   -0.0780 C   0  0  0  0  0  0  0  0  0  0  0  0
    0.5310    3.4900    0.2210 O   0  0  0  0  0  0  0  0  0  0  0  0
   -3.0540    0.2620    0.0240 C   0  0  0  0  0  0  0  0  0  0  0  0
    2.9510    2.7600    0.1420 O   0  0  0  0  0  0  0  0  0  0  0  0
    2.1740    3.3690    0.1950 H   0  0  0  0  0  0  0  0  0  0  0  0
    3.8280   -1.9010   -0.1270 O   0  0  0  0  0  0  0  0  0  0  0  0
    4.8650    0.6560   -0.0200 C   0  0  0  0  0  0  0  0  0  0  0  0
    5.1150    1.7000   -0.2310 H   0  0  0  0  0  0  0  0  0  0  0  0
    5.3580    0.0580   -0.7940 H   0  0  0  0  0  0  0  0  0  0  0  0
    5.2810    0.3940    0.9580 H   0  0  0  0  0  0  0  0  0  0  0  0
   -4.0120    0.9270   -0.7580 C   0  0  0  0  0  0  0  0  0  0  0  0
   -3.7350    1.7800   -1.3730 H   0  0  0  0  0  0  0  0  0  0  0  0
   -3.4590   -0.8530    0.7750 C   0  0  0  0  0  0  0  0  0  0  0  0
   -2.7420   -1.3950    1.3880 H   0  0  0  0  0  0  0  0  0  0  0  0
    3.3730   -3.2480   -0.1430 C   0  0  0  0  0  0  0  0  0  0  0  0
    4.2530   -3.8980   -0.1640 H   0  0  0  0  0  0  0  0  0  0  0  0
    2.7860   -3.4550   -1.0440 H   0  0  0  0  0  0  0  0  0  0  0  0
    2.8070   -3.4850    0.7640 H   0  0  0  0  0  0  0  0  0  0  0  0
   -5.3420    0.4950   -0.7770 C   0  0  0  0  0  0  0  0  0  0  0  0
   -6.0730    1.0180   -1.3880 H   0  0  0  0  0  0  0  0  0  0  0  0
   -4.7890   -1.2830    0.7560 C   0  0  0  0  0  0  0  0  0  0  0  0
   -5.0880   -2.1460    1.3460 H   0  0  0  0  0  0  0  0  0  0  0  0
   -5.7290   -0.6080   -0.0190 C   0  0  0  0  0  0  0  0  0  0  0  0
   -6.7620   -0.9430   -0.0350 H   0  0  0  0  0  0  0  0  0  0  0  0
  1  2  1  0  0  0  0
  1  3  2  0  0  0  0
  1  4  1  0  0  0  0
  2  5  1  0  0  0  0
  2 13  2  0  0  0  0
  3  9  1  0  0  0  0
  3 15  1  0  0  0  0
  4  8  1  0  0  0  0
  4 10  2  0  0  0  0
  5  6  1  0  0  0  0
  5  7  2  0  0  0  0
  7  8  1  0  0  0  0
  7 14  1  0  0  0  0
  9 12  2  0  0  0  0
  9 18  1  0  0  0  0
 10 11  1  0  0  0  0
 10 12  1  0  0  0  0
 12 17  1  0  0  0  0
 14 22  2  0  0  0  0
 14 24  1  0  0  0  0
 15 16  1  0  0  0  0
 17 26  1  0  0  0  0
 18 19  1  0  0  0  0
 18 20  1  0  0  0  0
 18 21  1  0  0  0  0
 22 23  1  0  0  0  0
 22 30  1  0  0  0  0
 24 25  1  0  0  0  0
 24 32  2  0  0  0  0
 26 27  1  0  0  0  0
 26 28  1  0  0  0  0
 26 29  1  0  0  0  0
 30 31  1  0  0  0  0
 30 34  2  0  0  0  0
 32 33  1  0  0  0  0
 32 34  1  0  0  0  0
 34 35  1  0  0  0  0
M  END
>  <IDNUMBER>
AK-087/42718409

>  <NAME>
5-Hydroxy-7-methoxy-6-methylflavone

>  <ADD_INFO>
http://www.specs.net/enter.php?specsid=AK-087/42718409

>  <H_ACCEPTORS>
1

>  <H_DONORS>
1

>  <ROTATABLE_BONDS>
2

>  <LOGP>
4.4299998

>  <LOGS>
-4.4699998

>  <TPSA>
55.759998

>  <PRICE>
N05

$$$$
AK-087/42718446
  MOE2011           3D

 25 27  0  0  0  0  0  0  0  0999 V2000
   -1.1180    0.6340    0.0000 C   0  0  0  0  0  0  0  0  0  0  0  0
    0.1290    1.4010    0.0000 C   0  0  0  0  0  0  0  0  0  0  0  0
   -1.0500   -0.7540    0.0000 C   0  0  0  0  0  0  0  0  0  0  0  0
    0.1290   -1.4610   -0.0010 O   0  0  0  0  0  0  0  0  0  0  0  0
    1.3820    0.6380    0.0000 C   0  0  0  0  0  0  0  0  0  0  0  0
    1.3090   -0.7550   -0.0010 C   0  0  0  0  0  0  0  0  0  0  0  0
   -2.3550    1.2870    0.0000 C   0  0  0  0  0  0  0  0  0  0  0  0
   -2.2390   -1.4860    0.0000 C   0  0  0  0  0  0  0  0  0  0  0  0
    0.0830    2.6270   -0.0010 O   0  0  0  0  0  0  0  0  0  0  0  0
   -3.5360    0.5510    0.0000 C   0  0  0  0  0  0  0  0  0  0  0  0
   -4.4950    1.0600    0.0010 H   0  0  0  0  0  0  0  0  0  0  0  0
   -3.4770   -0.8440    0.0010 C   0  0  0  0  0  0  0  0  0  0  0  0
   -4.3930   -1.4290    0.0020 H   0  0  0  0  0  0  0  0  0  0  0  0
   -2.4480    2.6540   -0.0010 O   0  0  0  0  0  0  0  0  0  0  0  0
   -1.5230    3.0060   -0.0010 H   0  0  0  0  0  0  0  0  0  0  0  0
   -2.2280   -2.8530    0.0000 O   0  0  0  0  0  0  0  0  0  0  0  0
   -1.2940   -3.1330   -0.0020 H   0  0  0  0  0  0  0  0  0  0  0  0
    2.6160    1.2920    0.0020 C   0  0  0  0  0  0  0  0  0  0  0  0
    2.6680    2.3780    0.0030 H   0  0  0  0  0  0  0  0  0  0  0  0
    2.4860   -1.5040   -0.0010 C   0  0  0  0  0  0  0  0  0  0  0  0
    2.4450   -2.5900   -0.0020 H   0  0  0  0  0  0  0  0  0  0  0  0
    3.7890    0.5380    0.0010 C   0  0  0  0  0  0  0  0  0  0  0  0
    4.7550    1.0370    0.0010 H   0  0  0  0  0  0  0  0  0  0  0  0
    3.7240   -0.8570    0.0000 C   0  0  0  0  0  0  0  0  0  0  0  0
    4.6410   -1.4410   -0.0010 H   0  0  0  0  0  0  0  0  0  0  0  0
  1  2  1  0  0  0  0
  1  3  2  0  0  0  0
  1  7  1  0  0  0  0
  2  5  1  0  0  0  0
  2  9  2  0  0  0  0
  3  4  1  0  0  0  0
  3  8  1  0  0  0  0
  4  6  1  0  0  0  0
  5  6  2  0  0  0  0
  5 18  1  0  0  0  0
  6 20  1  0  0  0  0
  7 10  2  0  0  0  0
  7 14  1  0  0  0  0
  8 12  2  0  0  0  0
  8 16  1  0  0  0  0
 10 11  1  0  0  0  0
 10 12  1  0  0  0  0
 12 13  1  0  0  0  0
 14 15  1  0  0  0  0
 16 17  1  0  0  0  0
 18 19  1  0  0  0  0
 18 22  2  0  0  0  0
 20 21  1  0  0  0  0
 20 24  2  0  0  0  0
 22 23  1  0  0  0  0
 22 24  1  0  0  0  0
 24 25  1  0  0  0  0
M  END
>  <IDNUMBER>
AK-087/42718446

>  <NAME>
1,4-Dihydroxyxanthone

>  <ADD_INFO>
http://www.specs.net/enter.php?specsid=AK-087/42718446

>  <H_ACCEPTORS>
1

>  <H_DONORS>
2

>  <ROTATABLE_BONDS>
0

>  <LOGP>
3.6600001

>  <LOGS>
-4.52

>  <TPSA>
66.760002

>  <PRICE>
N05

$$$$
AK-198/11618045
  MOE2011           3D

 51 53  0  0  1  0  0  0  0  0999 V2000
    1.3690   -0.5220   -0.0760 C   0  0  0  0  0  0  0  0  0  0  0  0
    0.5240   -1.7760   -0.2180 C   0  0  3  0  0  0  0  0  0  0  0  0
    1.3710   -3.0590   -0.1810 N   0  3  3  0  0  0  0  0  0  0  0  0
    0.7320   -3.8470   -0.0110 H   0  0  0  0  0  0  0  0  0  0  0  0
    2.6600   -0.5670    0.4810 C   0  0  0  0  0  0  0  0  0  0  0  0
    0.8560    0.7180   -0.4910 C   0  0  0  0  0  0  0  0  0  0  0  0
   -0.1350    0.7890   -0.9360 H   0  0  0  0  0  0  0  0  0  0  0  0
    1.5970    1.8940   -0.3320 C   0  0  0  0  0  0  0  0  0  0  0  0
    3.4070    0.6180    0.6040 C   0  0  0  0  0  0  0  0  0  0  0  0
    4.4160    0.5860    1.0140 H   0  0  0  0  0  0  0  0  0  0  0  0
    2.8940    1.8470    0.1810 C   0  0  0  0  0  0  0  0  0  0  0  0
   -3.2600    0.8030    1.0550 C   0  0  0  0  0  0  0  0  0  0  0  0
   -0.5720   -1.8830    0.8790 C   0  0  0  0  0  0  0  0  0  0  0  0
   -0.9030   -2.9240    0.9890 H   0  0  0  0  0  0  0  0  0  0  0  0
   -0.1650   -1.5960    1.8570 H   0  0  0  0  0  0  0  0  0  0  0  0
    2.3460   -3.0450    0.9730 C   0  0  0  0  0  0  0  0  0  0  0  0
    1.7500   -2.9870    1.8910 H   0  0  0  0  0  0  0  0  0  0  0  0
    2.8740   -4.0040    0.9770 H   0  0  0  0  0  0  0  0  0  0  0  0
   -4.1400    0.4220    0.0380 C   0  0  0  0  0  0  0  0  0  0  0  0
   -2.1090    0.0750    1.3380 C   0  0  0  0  0  0  0  0  0  0  0  0
   -1.4550    0.4080    2.1400 H   0  0  0  0  0  0  0  0  0  0  0  0
   -1.8130   -1.0700    0.5890 C   0  0  0  0  0  0  0  0  0  0  0  0
    3.3120   -1.8710    0.8680 C   0  0  0  0  0  0  0  0  0  0  0  0
    3.8240   -1.7560    1.8310 H   0  0  0  0  0  0  0  0  0  0  0  0
    4.0820   -2.1010    0.1200 H   0  0  0  0  0  0  0  0  0  0  0  0
   -3.8500   -0.7180   -0.7080 C   0  0  0  0  0  0  0  0  0  0  0  0
   -4.5000   -1.0610   -1.5060 H   0  0  0  0  0  0  0  0  0  0  0  0
   -2.6950   -1.4600   -0.4310 C   0  0  0  0  0  0  0  0  0  0  0  0
   -2.5010   -2.3550   -1.0200 H   0  0  0  0  0  0  0  0  0  0  0  0
   -3.5280    1.9190    1.8020 O   0  0  0  0  0  0  0  0  0  0  0  0
   -4.3880    2.2490    1.4700 H   0  0  0  0  0  0  0  0  0  0  0  0
    1.0130    3.0680   -0.7300 O   0  0  0  0  0  0  0  0  0  0  0  0
    3.7330    2.9120    0.3640 O   0  0  0  0  0  0  0  0  0  0  0  0
   -5.2290    1.2390   -0.1140 O   0  0  0  0  0  0  0  0  0  0  0  0
    2.0160   -3.3710   -1.5070 C   0  0  0  0  0  0  0  0  0  0  0  0
    2.6580   -2.5390   -1.8060 H   0  0  0  0  0  0  0  0  0  0  0  0
    1.2180   -3.5240   -2.2380 H   0  0  0  0  0  0  0  0  0  0  0  0
    2.5950   -4.2910   -1.3940 H   0  0  0  0  0  0  0  0  0  0  0  0
    3.7260    3.8780   -0.6840 C   0  0  0  0  0  0  0  0  0  0  0  0
    4.7030    4.3710   -0.6860 H   0  0  0  0  0  0  0  0  0  0  0  0
    2.9720    4.6460   -0.4910 H   0  0  0  0  0  0  0  0  0  0  0  0
    3.5840    3.4240   -1.6720 H   0  0  0  0  0  0  0  0  0  0  0  0
    0.2600    3.6280    0.3490 C   0  0  0  0  0  0  0  0  0  0  0  0
   -0.1460    4.5850    0.0100 H   0  0  0  0  0  0  0  0  0  0  0  0
    0.8950    3.8180    1.2210 H   0  0  0  0  0  0  0  0  0  0  0  0
   -0.5800    2.9810    0.6220 H   0  0  0  0  0  0  0  0  0  0  0  0
   -6.1720    0.8640   -1.1130 C   0  0  0  0  0  0  0  0  0  0  0  0
   -6.9830    1.5990   -1.0990 H   0  0  0  0  0  0  0  0  0  0  0  0
   -6.6070   -0.1170   -0.8960 H   0  0  0  0  0  0  0  0  0  0  0  0
   -5.7190    0.8860   -2.1100 H   0  0  0  0  0  0  0  0  0  0  0  0
    0.0570   -1.7810   -1.2110 H   0  0  0  0  0  0  0  0  0  0  0  0
  1  2  1  0  0  0  0
  1  5  2  0  0  0  0
  1  6  1  0  0  0  0
  2  3  1  0  0  0  0
  2 13  1  0  0  0  0
  2 51  1  0  0  0  0
  3  4  1  0  0  0  0
  3 16  1  0  0  0  0
  3 35  1  0  0  0  0
  5  9  1  0  0  0  0
  5 23  1  0  0  0  0
  6  7  1  0  0  0  0
  6  8  2  0  0  0  0
  8 11  1  0  0  0  0
  8 32  1  0  0  0  0
  9 10  1  0  0  0  0
  9 11  2  0  0  0  0
 11 33  1  0  0  0  0
 12 19  2  0  0  0  0
 12 20  1  0  0  0  0
 12 30  1  0  0  0  0
 13 14  1  0  0  0  0
 13 15  1  0  0  0  0
 13 22  1  0  0  0  0
 16 17  1  0  0  0  0
 16 18  1  0  0  0  0
 16 23  1  0  0  0  0
 19 26  1  0  0  0  0
 19 34  1  0  0  0  0
 20 21  1  0  0  0  0
 20 22  2  0  0  0  0
 22 28  1  0  0  0  0
 23 24  1  0  0  0  0
 23 25  1  0  0  0  0
 26 27  1  0  0  0  0
 26 28  2  0  0  0  0
 28 29  1  0  0  0  0
 30 31  1  0  0  0  0
 32 43  1  0  0  0  0
 33 39  1  0  0  0  0
 34 47  1  0  0  0  0
 35 36  1  0  0  0  0
 35 37  1  0  0  0  0
 35 38  1  0  0  0  0
 39 40  1  0  0  0  0
 39 41  1  0  0  0  0
 39 42  1  0  0  0  0
 43 44  1  0  0  0  0
 43 45  1  0  0  0  0
 43 46  1  0  0  0  0
 47 48  1  0  0  0  0
 47 49  1  0  0  0  0
 47 50  1  0  0  0  0
M  CHG  1   3   1
M  END
>  <IDNUMBER>
AK-198/11618045

>  <NAME>
Laudanidine

>  <ADD_INFO>
http://www.specs.net/enter.php?specsid=AK-198/11618045

>  <H_ACCEPTORS>
1

>  <H_DONORS>
1

>  <ROTATABLE_BONDS>
5

>  <LOGP>
3.0699999

>  <LOGS>
-3.3199999

>  <TPSA>
51.16

>  <PRICE>
N05

$$$$
AK-693/21087002
  MOE2011           3D

 60 63  0  0  1  0  0  0  0  0999 V2000
   -0.6050    0.9680    0.0400 C   0  0  0  0  0  0  0  0  0  0  0  0
    0.8310    0.7970    0.3760 C   0  0  0  0  0  0  0  0  0  0  0  0
   -1.5050   -0.1310    0.0630 C   0  0  0  0  0  0  0  0  0  0  0  0
   -2.8880    0.0710   -0.1880 C   0  0  0  0  0  0  0  0  0  0  0  0
    1.7950    0.5180   -0.6520 C   0  0  0  0  0  0  0  0  0  0  0  0
    3.1640    0.3370   -0.3120 C   0  0  0  0  0  0  0  0  0  0  0  0
   -1.1060    2.2300   -0.3180 C   0  0  0  0  0  0  0  0  0  0  0  0
   -3.3350    1.3460   -0.6000 C   0  0  0  0  0  0  0  0  0  0  0  0
    1.2410    0.9180    1.7260 C   0  0  0  0  0  0  0  0  0  0  0  0
   -3.8880   -1.0710   -0.0650 C   0  0  1  0  0  0  0  0  0  0  0  0
    3.5260    0.4820    1.0510 C   0  0  0  0  0  0  0  0  0  0  0  0
   -3.2740   -2.4010    0.3130 N   0  3  0  0  0  0  0  0  0  0  0  0
   -3.2330   -2.4740    1.3380 H   0  0  0  0  0  0  0  0  0  0  0  0
   -3.9010   -3.1540   -0.0010 H   0  0  0  0  0  0  0  0  0  0  0  0
   -2.4440    2.4160   -0.6520 C   0  0  0  0  0  0  0  0  0  0  0  0
   -2.7530    3.4130   -0.9490 H   0  0  0  0  0  0  0  0  0  0  0  0
    2.5860    0.7490    2.0470 C   0  0  0  0  0  0  0  0  0  0  0  0
    2.9200    0.8210    3.0800 H   0  0  0  0  0  0  0  0  0  0  0  0
   -0.9990   -1.5300    0.3670 C   0  0  0  0  0  0  0  0  0  0  0  0
   -0.9310   -1.6460    1.4560 H   0  0  0  0  0  0  0  0  0  0  0  0
    0.0040   -1.6770   -0.0470 H   0  0  0  0  0  0  0  0  0  0  0  0
   -1.9020   -2.6070   -0.2370 C   0  0  3  0  0  0  0  0  0  0  0  0
    4.0750    0.0210   -1.3620 C   0  0  0  0  0  0  0  0  0  0  0  0
   -0.3210    3.3520   -0.3830 O   0  0  0  0  0  0  0  0  0  0  0  0
    0.5930    3.1260   -0.1410 H   0  0  0  0  0  0  0  0  0  0  0  0
   -4.6550    1.4280   -0.9580 O   0  0  0  0  0  0  0  0  0  0  0  0
    4.8210    0.2880    1.4730 O   0  0  0  0  0  0  0  0  0  0  0  0
    1.4270    0.4110   -2.0190 C   0  0  0  0  0  0  0  0  0  0  0  0
    0.3940    0.5540   -2.3300 H   0  0  0  0  0  0  0  0  0  0  0  0
    5.4170   -0.1590   -1.1120 O   0  0  0  0  0  0  0  0  0  0  0  0
    0.2670    1.2220    2.8360 C   0  0  0  0  0  0  0  0  0  0  0  0
    0.7750    1.3070    3.8030 H   0  0  0  0  0  0  0  0  0  0  0  0
   -0.4750    0.4220    2.9280 H   0  0  0  0  0  0  0  0  0  0  0  0
   -0.2390    2.1750    2.6530 H   0  0  0  0  0  0  0  0  0  0  0  0
   -4.9760   -0.8210    0.9890 C   0  0  0  0  0  0  0  0  0  0  0  0
   -5.6160    0.0300    0.7420 H   0  0  0  0  0  0  0  0  0  0  0  0
   -4.5340   -0.6220    1.9720 H   0  0  0  0  0  0  0  0  0  0  0  0
   -5.6330   -1.6930    1.0850 H   0  0  0  0  0  0  0  0  0  0  0  0
    2.3500    0.1350   -3.0270 C   0  0  0  0  0  0  0  0  0  0  0  0
    2.0280    0.0740   -4.0630 H   0  0  0  0  0  0  0  0  0  0  0  0
    3.6790   -0.0570   -2.6980 C   0  0  0  0  0  0  0  0  0  0  0  0
    4.4100   -0.2630   -3.4750 H   0  0  0  0  0  0  0  0  0  0  0  0
   -1.4410   -4.0100    0.1340 C   0  0  0  0  0  0  0  0  0  0  0  0
   -0.4380   -4.2020   -0.2600 H   0  0  0  0  0  0  0  0  0  0  0  0
   -2.1140   -4.7660   -0.2840 H   0  0  0  0  0  0  0  0  0  0  0  0
   -1.4100   -4.1500    1.2200 H   0  0  0  0  0  0  0  0  0  0  0  0
   -5.1510    2.6980   -1.3690 C   0  0  0  0  0  0  0  0  0  0  0  0
   -6.2140    2.5800   -1.6040 H   0  0  0  0  0  0  0  0  0  0  0  0
   -4.6470    3.0430   -2.2780 H   0  0  0  0  0  0  0  0  0  0  0  0
   -5.0680    3.4340   -0.5630 H   0  0  0  0  0  0  0  0  0  0  0  0
    5.4990    1.5420    1.5830 C   0  0  0  0  0  0  0  0  0  0  0  0
    6.5550    1.3340    1.7770 H   0  0  0  0  0  0  0  0  0  0  0  0
    5.1070    2.1230    2.4240 H   0  0  0  0  0  0  0  0  0  0  0  0
    5.4310    2.1230    0.6570 H   0  0  0  0  0  0  0  0  0  0  0  0
    5.7040   -1.5520   -0.9820 C   0  0  0  0  0  0  0  0  0  0  0  0
    6.7410   -1.6490   -0.6450 H   0  0  0  0  0  0  0  0  0  0  0  0
    5.6140   -2.0610   -1.9480 H   0  0  0  0  0  0  0  0  0  0  0  0
    5.0600   -2.0340   -0.2380 H   0  0  0  0  0  0  0  0  0  0  0  0
   -4.3430   -1.2440   -1.0480 H   0  0  0  0  0  0  0  0  0  0  0  0
   -1.9750   -2.5140   -1.3270 H   0  0  0  0  0  0  0  0  0  0  0  0
  1  2  1  0  0  0  0
  1  3  2  0  0  0  0
  1  7  1  0  0  0  0
  2  5  1  0  0  0  0
  2  9  2  0  0  0  0
  3  4  1  0  0  0  0
  3 19  1  0  0  0  0
  4  8  2  0  0  0  0
  4 10  1  0  0  0  0
  5  6  2  0  0  0  0
  5 28  1  0  0  0  0
  6 11  1  0  0  0  0
  6 23  1  0  0  0  0
  7 15  2  0  0  0  0
  7 24  1  0  0  0  0
  8 15  1  0  0  0  0
  8 26  1  0  0  0  0
  9 17  1  0  0  0  0
  9 31  1  0  0  0  0
 10 12  1  0  0  0  0
 10 35  1  0  0  0  0
 10 59  1  0  0  0  0
 11 17  2  0  0  0  0
 11 27  1  0  0  0  0
 12 13  1  0  0  0  0
 12 14  1  0  0  0  0
 12 22  1  0  0  0  0
 15 16  1  0  0  0  0
 17 18  1  0  0  0  0
 19 20  1  0  0  0  0
 19 21  1  0  0  0  0
 19 22  1  0  0  0  0
 22 43  1  0  0  0  0
 22 60  1  0  0  0  0
 23 30  1  0  0  0  0
 23 41  2  0  0  0  0
 24 25  1  0  0  0  0
 26 47  1  0  0  0  0
 27 51  1  0  0  0  0
 28 29  1  0  0  0  0
 28 39  2  0  0  0  0
 30 55  1  0  0  0  0
 31 32  1  0  0  0  0
 31 33  1  0  0  0  0
 31 34  1  0  0  0  0
 35 36  1  0  0  0  0
 35 37  1  0  0  0  0
 35 38  1  0  0  0  0
 39 40  1  0  0  0  0
 39 41  1  0  0  0  0
 41 42  1  0  0  0  0
 43 44  1  0  0  0  0
 43 45  1  0  0  0  0
 43 46  1  0  0  0  0
 47 48  1  0  0  0  0
 47 49  1  0  0  0  0
 47 50  1  0  0  0  0
 51 52  1  0  0  0  0
 51 53  1  0  0  0  0
 51 54  1  0  0  0  0
 55 56  1  0  0  0  0
 55 57  1  0  0  0  0
 55 58  1  0  0  0  0
M  CHG  1  12   1
M  END
>  <IDNUMBER>
AK-693/21087002

>  <NAME>
Ancistrocladine

>  <ADD_INFO>
http://www.specs.net/enter.php?specsid=AK-693/21087002

>  <H_ACCEPTORS>
1

>  <H_DONORS>
2

>  <ROTATABLE_BONDS>
4

>  <LOGP>
5.8299999

>  <LOGS>
-5.5599999

>  <TPSA>
59.950001

>  <PRICE>
N07

$$$$
AK-693/21087006
  MOE2011           3D

 33 35  0  0  0  0  0  0  0  0999 V2000
   -1.0640   -0.1430   -0.0890 C   0  0  0  0  0  0  0  0  0  0  0  0
   -0.8430   -1.6270   -0.1300 C   0  0  0  0  0  0  0  0  0  0  0  0
    0.0090    0.6680   -0.0210 C   0  0  0  0  0  0  0  0  0  0  0  0
   -0.0910    1.7480    0.0090 H   0  0  0  0  0  0  0  0  0  0  0  0
    0.4720   -2.0830   -0.0850 O   0  0  0  0  0  0  0  0  0  0  0  0
    1.5750   -1.2130   -0.0170 C   0  0  0  0  0  0  0  0  0  0  0  0
    1.3730    0.1610    0.0150 C   0  0  0  0  0  0  0  0  0  0  0  0
    2.8410   -1.8020    0.0120 C   0  0  0  0  0  0  0  0  0  0  0  0
    2.9880   -2.8740   -0.0140 H   0  0  0  0  0  0  0  0  0  0  0  0
    3.9090   -0.9130    0.0750 C   0  0  0  0  0  0  0  0  0  0  0  0
   -2.5260    0.3600   -0.1280 C   0  0  0  0  0  0  0  0  0  0  0  0
    3.7730    0.4720    0.1100 C   0  0  0  0  0  0  0  0  0  0  0  0
    2.4780    1.0260    0.0800 C   0  0  0  0  0  0  0  0  0  0  0  0
    2.3490    2.1050    0.1070 H   0  0  0  0  0  0  0  0  0  0  0  0
    5.2260   -1.2580    0.1110 O   0  0  0  0  0  0  0  0  0  0  0  0
    5.9370   -0.1020    0.1680 C   0  0  0  0  0  0  0  0  0  0  0  0
    7.0100   -0.2180    0.2010 H   0  0  0  0  0  0  0  0  0  0  0  0
   -1.7620   -2.4350   -0.2030 O   0  0  0  0  0  0  0  0  0  0  0  0
    5.0950    0.9870    0.1710 C   0  0  0  0  0  0  0  0  0  0  0  0
    5.3960    2.0240    0.2110 H   0  0  0  0  0  0  0  0  0  0  0  0
   -3.2840   -0.1530    1.0970 C   0  0  0  0  0  0  0  0  0  0  0  0
   -2.8520    0.1150    2.0620 H   0  0  0  0  0  0  0  0  0  0  0  0
   -4.4080   -0.8820    1.1180 C   0  0  0  0  0  0  0  0  0  0  0  0
   -4.8490   -1.1870    2.0620 H   0  0  0  0  0  0  0  0  0  0  0  0
   -4.9110   -1.2060    0.2130 H   0  0  0  0  0  0  0  0  0  0  0  0
   -2.6430    1.9070   -0.0450 C   0  0  0  0  0  0  0  0  0  0  0  0
   -3.6930    2.2270   -0.0600 H   0  0  0  0  0  0  0  0  0  0  0  0
   -2.1490    2.3950   -0.8940 H   0  0  0  0  0  0  0  0  0  0  0  0
   -2.2020    2.3040    0.8780 H   0  0  0  0  0  0  0  0  0  0  0  0
   -3.1630   -0.0310   -1.4850 C   0  0  0  0  0  0  0  0  0  0  0  0
   -4.1690    0.3920   -1.5910 H   0  0  0  0  0  0  0  0  0  0  0  0
   -3.2570   -1.1130   -1.6180 H   0  0  0  0  0  0  0  0  0  0  0  0
   -2.5640    0.3490   -2.3220 H   0  0  0  0  0  0  0  0  0  0  0  0
  1  2  1  0  0  0  0
  1  3  2  0  0  0  0
  1 11  1  0  0  0  0
  2  5  1  0  0  0  0
  2 18  2  0  0  0  0
  3  4  1  0  0  0  0
  3  7  1  0  0  0  0
  5  6  1  0  0  0  0
  6  7  1  0  0  0  0
  6  8  2  0  0  0  0
  7 13  2  0  0  0  0
  8  9  1  0  0  0  0
  8 10  1  0  0  0  0
 10 12  2  0  0  0  0
 10 15  1  0  0  0  0
 11 21  1  0  0  0  0
 11 26  1  0  0  0  0
 11 30  1  0  0  0  0
 12 13  1  0  0  0  0
 12 19  1  0  0  0  0
 13 14  1  0  0  0  0
 15 16  1  0  0  0  0
 16 17  1  0  0  0  0
 16 19  2  0  0  0  0
 19 20  1  0  0  0  0
 21 22  1  0  0  0  0
 21 23  2  0  0  0  0
 23 24  1  0  0  0  0
 23 25  1  0  0  0  0
 26 27  1  0  0  0  0
 26 28  1  0  0  0  0
 26 29  1  0  0  0  0
 30 31  1  0  0  0  0
 30 32  1  0  0  0  0
 30 33  1  0  0  0  0
M  END
>  <IDNUMBER>
AK-693/21087006

>  <NAME>
Chalepensin (Xylotenin)

>  <ADD_INFO>
http://www.specs.net/enter.php?specsid=AK-693/21087006

>  <H_ACCEPTORS>
1

>  <H_DONORS>
0

>  <ROTATABLE_BONDS>
2

>  <LOGP>
4.3200002

>  <LOGS>
-4.75

>  <TPSA>
39.439999

>  <PRICE>
N07

$$$$
AK-693/21087008
  MOE2011           3D

 65 69  0  0  1  0  0  0  0  0999 V2000
   -1.4110    0.0760    0.0860 C   0  0  3  0  0  0  0  0  0  0  0  0
   -2.8350    0.3840    0.6640 C   0  0  1  0  0  0  0  0  0  0  0  0
   -0.4430    0.3480    1.3170 C   0  0  1  0  0  0  0  0  0  0  0  0
    0.9390   -0.4340    1.3370 C   0  0  3  0  0  0  0  0  0  0  0  0
   -1.1660   -1.3970   -0.4080 C   0  0  3  0  0  0  0  0  0  0  0  0
   -3.8740    0.4480   -0.3300 O   0  0  0  0  0  0  0  0  0  0  0  0
    1.8930    0.0970    0.2160 C   0  0  3  0  0  0  0  0  0  0  0  0
    1.7600   -0.5070   -1.1050 O   0  0  0  0  0  0  0  0  0  0  0  0
    0.5630   -1.9800    1.3640 C   0  0  3  0  0  0  0  0  0  0  0  0
    3.0920   -0.7020   -1.0710 C   0  0  1  0  0  0  0  0  0  0  0  0
   -4.0080   -0.5900    0.6400 C   0  0  0  0  0  0  0  0  0  0  0  0
   -4.7960   -0.4770    1.3780 H   0  0  0  0  0  0  0  0  0  0  0  0
   -3.8890   -1.6170    0.3320 H   0  0  0  0  0  0  0  0  0  0  0  0
   -1.1860    0.9430   -1.2040 C   0  0  0  0  0  0  0  0  0  0  0  0
   -1.8950    0.6230   -1.9790 H   0  0  0  0  0  0  0  0  0  0  0  0
   -0.1810    0.7890   -1.6000 H   0  0  0  0  0  0  0  0  0  0  0  0
   -0.8120   -2.3330    0.7380 C   0  0  0  0  0  0  0  0  0  0  0  0
   -1.5940   -2.2730    1.5060 H   0  0  0  0  0  0  0  0  0  0  0  0
   -0.8320   -3.3800    0.4130 H   0  0  0  0  0  0  0  0  0  0  0  0
    4.4060   -0.2890   -1.2490 C   0  0  1  0  0  0  0  0  0  0  0  0
    3.5800   -0.0070    0.4530 C   0  0  0  0  0  0  0  0  0  0  0  0
    3.9150    0.9080    0.9700 H   0  0  0  0  0  0  0  0  0  0  0  0
    3.8500   -0.8650    1.0940 H   0  0  0  0  0  0  0  0  0  0  0  0
   -2.2620   -1.8960   -1.1970 O   0  0  0  0  0  0  0  0  0  0  0  0
    3.5060    1.0320   -1.3910 O   0  0  0  0  0  0  0  0  0  0  0  0
   -1.9930   -2.8770   -2.1020 C   0  0  0  0  0  0  0  0  0  0  0  0
    5.0160    1.3250   -1.1410 C   0  0  0  0  0  0  0  0  0  0  0  0
    5.2470    2.3720   -1.2200 H   0  0  0  0  0  0  0  0  0  0  0  0
   -1.2540    3.1050   -2.1360 C   0  0  0  0  0  0  0  0  0  0  0  0
    5.6610    0.1900   -0.8410 C   0  0  0  0  0  0  0  0  0  0  0  0
    6.6670   -0.0900   -0.6270 H   0  0  0  0  0  0  0  0  0  0  0  0
   -1.3530    2.3480   -1.0090 O   0  0  0  0  0  0  0  0  0  0  0  0
   -0.9040   -3.4000   -2.2960 O   0  0  0  0  0  0  0  0  0  0  0  0
   -1.0300    2.6890   -3.2640 O   0  0  0  0  0  0  0  0  0  0  0  0
   -0.4100    1.8370    1.7130 C   0  0  0  0  0  0  0  0  0  0  0  0
    0.0670    1.9510    2.6930 H   0  0  0  0  0  0  0  0  0  0  0  0
    0.1960    2.4290    1.0200 H   0  0  0  0  0  0  0  0  0  0  0  0
   -2.9510    1.4410    1.7540 C   0  0  0  0  0  0  0  0  0  0  0  0
   -3.8970    1.9880    1.6520 H   0  0  0  0  0  0  0  0  0  0  0  0
   -3.0070    0.9210    2.7190 H   0  0  0  0  0  0  0  0  0  0  0  0
    1.6410   -0.1350    2.6970 C   0  0  0  0  0  0  0  0  0  0  0  0
    0.9470   -0.2520    3.5380 H   0  0  0  0  0  0  0  0  0  0  0  0
    2.0390    0.8840    2.7350 H   0  0  0  0  0  0  0  0  0  0  0  0
    2.4750   -0.8210    2.8790 H   0  0  0  0  0  0  0  0  0  0  0  0
    1.6310   -2.9470    0.8570 C   0  0  0  0  0  0  0  0  0  0  0  0
    1.3840   -3.9710    1.1620 H   0  0  0  0  0  0  0  0  0  0  0  0
    2.6130   -2.7240    1.2780 H   0  0  0  0  0  0  0  0  0  0  0  0
    1.6880   -2.9540   -0.2330 H   0  0  0  0  0  0  0  0  0  0  0  0
   -1.8120    2.4510    1.8220 C   0  0  0  0  0  0  0  0  0  0  0  0
   -1.9500    3.2160    1.0530 H   0  0  0  0  0  0  0  0  0  0  0  0
   -1.8870    3.0040    2.7670 H   0  0  0  0  0  0  0  0  0  0  0  0
   -3.2460   -3.2380   -2.8390 C   0  0  0  0  0  0  0  0  0  0  0  0
   -3.6300   -2.3620   -3.3680 H   0  0  0  0  0  0  0  0  0  0  0  0
   -3.9900   -3.6220   -2.1380 H   0  0  0  0  0  0  0  0  0  0  0  0
   -3.0230   -4.0170   -3.5740 H   0  0  0  0  0  0  0  0  0  0  0  0
   -1.4570    4.5490   -1.7940 C   0  0  0  0  0  0  0  0  0  0  0  0
   -0.6950    4.8710   -1.0800 H   0  0  0  0  0  0  0  0  0  0  0  0
   -2.4580    4.6940   -1.3810 H   0  0  0  0  0  0  0  0  0  0  0  0
   -1.3620    5.1530   -2.7010 H   0  0  0  0  0  0  0  0  0  0  0  0
   -0.9590   -0.1100    2.1800 H   0  0  0  0  0  0  0  0  0  0  0  0
    4.3690   -0.5900   -2.3370 H   0  0  0  0  0  0  0  0  0  0  0  0
    3.4810   -1.7350   -0.8390 H   0  0  0  0  0  0  0  0  0  0  0  0
   -0.3080   -1.3900   -1.0820 H   0  0  0  0  0  0  0  0  0  0  0  0
    1.6930    1.1690    0.0860 H   0  0  0  0  0  0  0  0  0  0  0  0
    0.4400   -2.2510    2.4250 H   0  0  0  0  0  0  0  0  0  0  0  0
  1  2  1  0  0  0  0
  1  3  1  0  0  0  0
  1  5  1  0  0  0  0
  1 14  1  0  0  0  0
  2  6  1  0  0  0  0
  2 11  1  0  0  0  0
  2 38  1  0  0  0  0
  3  4  1  0  0  0  0
  3 35  1  0  0  0  0
  3 60  1  0  0  0  0
  4  7  1  0  0  0  0
  4  9  1  0  0  0  0
  4 41  1  0  0  0  0
  5 17  1  0  0  0  0
  5 24  1  0  0  0  0
  5 63  1  0  0  0  0
  6 11  1  0  0  0  0
  7  8  1  0  0  0  0
  7 21  1  0  0  0  0
  7 64  1  0  0  0  0
  8 10  1  0  0  0  0
  9 17  1  0  0  0  0
  9 45  1  0  0  0  0
  9 65  1  0  0  0  0
 10 20  1  0  0  0  0
 10 25  1  0  0  0  0
 10 62  1  0  0  0  0
 11 12  1  0  0  0  0
 11 13  1  0  0  0  0
 14 15  1  0  0  0  0
 14 16  1  0  0  0  0
 14 32  1  0  0  0  0
 17 18  1  0  0  0  0
 17 19  1  0  0  0  0
 20 21  1  0  0  0  0
 20 30  1  0  0  0  0
 20 61  1  0  0  0  0
 21 22  1  0  0  0  0
 21 23  1  0  0  0  0
 24 26  1  0  0  0  0
 25 27  1  0  0  0  0
 26 33  2  0  0  0  0
 26 52  1  0  0  0  0
 27 28  1  0  0  0  0
 27 30  2  0  0  0  0
 29 32  1  0  0  0  0
 29 34  2  0  0  0  0
 29 56  1  0  0  0  0
 30 31  1  0  0  0  0
 35 36  1  0  0  0  0
 35 37  1  0  0  0  0
 35 49  1  0  0  0  0
 38 39  1  0  0  0  0
 38 40  1  0  0  0  0
 38 49  1  0  0  0  0
 41 42  1  0  0  0  0
 41 43  1  0  0  0  0
 41 44  1  0  0  0  0
 45 46  1  0  0  0  0
 45 47  1  0  0  0  0
 45 48  1  0  0  0  0
 49 50  1  0  0  0  0
 49 51  1  0  0  0  0
 52 53  1  0  0  0  0
 52 54  1  0  0  0  0
 52 55  1  0  0  0  0
 56 57  1  0  0  0  0
 56 58  1  0  0  0  0
 56 59  1  0  0  0  0
M  END
>  <IDNUMBER>
AK-693/21087008

>  <NAME>
Clerodin

>  <ADD_INFO>
http://www.specs.net/enter.php?specsid=AK-693/21087008

>  <H_ACCEPTORS>
7

>  <H_DONORS>
0

>  <ROTATABLE_BONDS>
6

>  <LOGP>
3.4000001

>  <LOGS>
-5.27

>  <TPSA>
83.589996

>  <PRICE>
N07

$$$$
AK-693/21087011
  MOE2011           3D

 34 37  0  0  0  0  0  0  0  0999 V2000
    0.6020    1.5360   -0.1890 C   0  0  0  0  0  0  0  0  0  0  0  0
   -1.6620   -0.1390   -0.1800 C   0  0  0  0  0  0  0  0  0  0  0  0
    0.6890    0.1910   -0.2070 C   0  0  0  0  0  0  0  0  0  0  0  0
   -0.3970   -0.6680   -0.1950 O   0  0  0  0  0  0  0  0  0  0  0  0
   -1.9030    1.2390   -0.2040 C   0  0  0  0  0  0  0  0  0  0  0  0
   -0.7510    2.1550   -0.2350 C   0  0  0  0  0  0  0  0  0  0  0  0
   -2.7650   -1.0120   -0.1420 C   0  0  0  0  0  0  0  0  0  0  0  0
   -3.2070    1.7520   -0.1950 C   0  0  0  0  0  0  0  0  0  0  0  0
   -3.3700    2.8290   -0.2160 H   0  0  0  0  0  0  0  0  0  0  0  0
   -4.0450   -0.4670   -0.1310 C   0  0  0  0  0  0  0  0  0  0  0  0
   -2.9490   -2.4210   -0.1070 C   0  0  0  0  0  0  0  0  0  0  0  0
   -2.1820   -3.1830   -0.1050 H   0  0  0  0  0  0  0  0  0  0  0  0
   -4.3080   -2.6360   -0.0780 C   0  0  0  0  0  0  0  0  0  0  0  0
   -4.9240   -3.5240   -0.0470 H   0  0  0  0  0  0  0  0  0  0  0  0
   -4.9800   -1.4560   -0.0920 O   0  0  0  0  0  0  0  0  0  0  0  0
    1.9810   -0.5250   -0.1970 C   0  0  0  0  0  0  0  0  0  0  0  0
   -0.9190    3.3670   -0.2980 O   0  0  0  0  0  0  0  0  0  0  0  0
   -4.3150    0.8990   -0.1580 C   0  0  0  0  0  0  0  0  0  0  0  0
   -5.3310    1.2760   -0.1490 H   0  0  0  0  0  0  0  0  0  0  0  0
    1.7180    2.3540   -0.1970 O   0  0  0  0  0  0  0  0  0  0  0  0
    2.9870   -0.2390   -1.1310 C   0  0  0  0  0  0  0  0  0  0  0  0
    2.8390    0.5320   -1.8840 H   0  0  0  0  0  0  0  0  0  0  0  0
    2.2050   -1.5400    0.7450 C   0  0  0  0  0  0  0  0  0  0  0  0
    1.4400   -1.7910    1.4770 H   0  0  0  0  0  0  0  0  0  0  0  0
    1.8620    3.0540    1.0370 C   0  0  0  0  0  0  0  0  0  0  0  0
    2.8390    3.5460    1.0310 H   0  0  0  0  0  0  0  0  0  0  0  0
    1.8360    2.3640    1.8890 H   0  0  0  0  0  0  0  0  0  0  0  0
    1.0970    3.8280    1.1510 H   0  0  0  0  0  0  0  0  0  0  0  0
    4.1960   -0.9390   -1.1110 C   0  0  0  0  0  0  0  0  0  0  0  0
    4.9700   -0.7040   -1.8370 H   0  0  0  0  0  0  0  0  0  0  0  0
    3.4130   -2.2400    0.7640 C   0  0  0  0  0  0  0  0  0  0  0  0
    3.5760   -3.0210    1.5020 H   0  0  0  0  0  0  0  0  0  0  0  0
    4.4090   -1.9370   -0.1630 C   0  0  0  0  0  0  0  0  0  0  0  0
    5.3490   -2.4810   -0.1480 H   0  0  0  0  0  0  0  0  0  0  0  0
  1  3  2  0  0  0  0
  1  6  1  0  0  0  0
  1 20  1  0  0  0  0
  2  4  1  0  0  0  0
  2  5  2  0  0  0  0
  2  7  1  0  0  0  0
  3  4  1  0  0  0  0
  3 16  1  0  0  0  0
  5  6  1  0  0  0  0
  5  8  1  0  0  0  0
  6 17  2  0  0  0  0
  7 10  2  0  0  0  0
  7 11  1  0  0  0  0
  8  9  1  0  0  0  0
  8 18  2  0  0  0  0
 10 15  1  0  0  0  0
 10 18  1  0  0  0  0
 11 12  1  0  0  0  0
 11 13  2  0  0  0  0
 13 14  1  0  0  0  0
 13 15  1  0  0  0  0
 16 21  2  0  0  0  0
 16 23  1  0  0  0  0
 18 19  1  0  0  0  0
 20 25  1  0  0  0  0
 21 22  1  0  0  0  0
 21 29  1  0  0  0  0
 23 24  1  0  0  0  0
 23 31  2  0  0  0  0
 25 26  1  0  0  0  0
 25 27  1  0  0  0  0
 25 28  1  0  0  0  0
 29 30  1  0  0  0  0
 29 33  2  0  0  0  0
 31 32  1  0  0  0  0
 31 33  1  0  0  0  0
 33 34  1  0  0  0  0
M  END
>  <IDNUMBER>
AK-693/21087011

>  <NAME>
Karanjin

>  <ADD_INFO>
http://www.specs.net/enter.php?specsid=AK-693/21087011

>  <H_ACCEPTORS>
2

>  <H_DONORS>
0

>  <ROTATABLE_BONDS>
2

>  <LOGP>
4.1999998

>  <LOGS>
-4.9200001

>  <TPSA>
48.669998

>  <PRICE>
N07

$$$$
AK-693/21087012
  MOE2011           3D

 30 34  0  0  0  0  0  0  0  0999 V2000
   -0.2170    0.2680    0.0010 C   0  0  0  0  0  0  0  0  0  0  0  0
   -0.5530   -1.1170    0.0000 C   0  0  0  0  0  0  0  0  0  0  0  0
    0.4110   -2.1280    0.0010 C   0  0  0  0  0  0  0  0  0  0  0  0
    1.8490   -1.7680    0.0070 C   0  0  0  0  0  0  0  0  0  0  0  0
    1.2180    0.6610    0.0000 C   0  0  0  0  0  0  0  0  0  0  0  0
    2.2190   -0.3330    0.0030 C   0  0  0  0  0  0  0  0  0  0  0  0
   -1.2990    1.1490    0.0020 C   0  0  0  0  0  0  0  0  0  0  0  0
   -1.9090   -1.5560   -0.0020 C   0  0  0  0  0  0  0  0  0  0  0  0
   -2.6090    0.7140    0.0020 C   0  0  0  0  0  0  0  0  0  0  0  0
   -2.9450   -0.6200   -0.0010 C   0  0  0  0  0  0  0  0  0  0  0  0
   -3.9900   -0.9160   -0.0020 H   0  0  0  0  0  0  0  0  0  0  0  0
    0.1450   -3.4610   -0.0010 N   0  0  0  0  0  0  0  0  0  0  0  0
   -1.2510    2.5140    0.0050 O   0  0  0  0  0  0  0  0  0  0  0  0
   -3.5150    1.7300    0.0040 O   0  0  0  0  0  0  0  0  0  0  0  0
    2.7240   -2.6270    0.0150 O   0  0  0  0  0  0  0  0  0  0  0  0
   -2.6440    2.8710    0.0060 C   0  0  0  0  0  0  0  0  0  0  0  0
   -2.8520    3.4730    0.8980 H   0  0  0  0  0  0  0  0  0  0  0  0
   -2.8520    3.4770   -0.8830 H   0  0  0  0  0  0  0  0  0  0  0  0
   -1.1500   -3.8250   -0.0040 C   0  0  0  0  0  0  0  0  0  0  0  0
   -1.3310   -4.8960   -0.0070 H   0  0  0  0  0  0  0  0  0  0  0  0
    1.6670    1.9950   -0.0050 C   0  0  0  0  0  0  0  0  0  0  0  0
    0.9740    2.8300   -0.0090 H   0  0  0  0  0  0  0  0  0  0  0  0
   -2.1980   -2.9240   -0.0040 C   0  0  0  0  0  0  0  0  0  0  0  0
   -3.2200   -3.2900   -0.0070 H   0  0  0  0  0  0  0  0  0  0  0  0
    3.5870   -0.0090    0.0010 C   0  0  0  0  0  0  0  0  0  0  0  0
    4.3410   -0.7930    0.0030 H   0  0  0  0  0  0  0  0  0  0  0  0
    3.0290    2.3220   -0.0060 C   0  0  0  0  0  0  0  0  0  0  0  0
    3.3340    3.3660   -0.0100 H   0  0  0  0  0  0  0  0  0  0  0  0
    3.9900    1.3200   -0.0030 C   0  0  0  0  0  0  0  0  0  0  0  0
    5.0460    1.5730   -0.0040 H   0  0  0  0  0  0  0  0  0  0  0  0
  1  2  1  0  0  0  0
  1  5  1  0  0  0  0
  1  7  2  0  0  0  0
  2  3  2  0  0  0  0
  2  8  1  0  0  0  0
  3  4  1  0  0  0  0
  3 12  1  0  0  0  0
  4  6  1  0  0  0  0
  4 15  2  0  0  0  0
  5  6  2  0  0  0  0
  5 21  1  0  0  0  0
  6 25  1  0  0  0  0
  7  9  1  0  0  0  0
  7 13  1  0  0  0  0
  8 10  1  0  0  0  0
  8 23  2  0  0  0  0
  9 10  2  0  0  0  0
  9 14  1  0  0  0  0
 10 11  1  0  0  0  0
 12 19  2  0  0  0  0
 13 16  1  0  0  0  0
 14 16  1  0  0  0  0
 16 17  1  0  0  0  0
 16 18  1  0  0  0  0
 19 20  1  0  0  0  0
 19 23  1  0  0  0  0
 21 22  1  0  0  0  0
 21 27  2  0  0  0  0
 23 24  1  0  0  0  0
 25 26  1  0  0  0  0
 25 29  2  0  0  0  0
 27 28  1  0  0  0  0
 27 29  1  0  0  0  0
 29 30  1  0  0  0  0
M  END
>  <IDNUMBER>
AK-693/21087012

>  <NAME>
Liriodenine

>  <ADD_INFO>
http://www.specs.net/enter.php?specsid=AK-693/21087012

>  <H_ACCEPTORS>
2

>  <H_DONORS>
0

>  <ROTATABLE_BONDS>
0

>  <LOGP>
3.76

>  <LOGS>
-5.5300002

>  <TPSA>
48.419998

>  <PRICE>
N07

$$$$
AK-693/21087015
  MOE2011           3D

 33 35  0  0  0  0  0  0  0  0999 V2000
    1.0940   -0.7920    0.0210 C   0  0  0  0  0  0  0  0  0  0  0  0
   -1.6430   -1.3020    0.1240 C   0  0  0  0  0  0  0  0  0  0  0  0
   -0.6950   -2.4100    0.2380 C   0  0  0  0  0  0  0  0  0  0  0  0
    0.7350   -2.0760    0.1780 C   0  0  0  0  0  0  0  0  0  0  0  0
    1.4350   -2.8970    0.2720 H   0  0  0  0  0  0  0  0  0  0  0  0
   -1.1490   -0.0120   -0.0240 C   0  0  0  0  0  0  0  0  0  0  0  0
    0.1960    0.2650   -0.0630 O   0  0  0  0  0  0  0  0  0  0  0  0
   -3.0180   -1.5300    0.1630 C   0  0  0  0  0  0  0  0  0  0  0  0
    2.5140   -0.3800   -0.0380 C   0  0  0  0  0  0  0  0  0  0  0  0
   -2.0320    1.0660   -0.1350 C   0  0  0  0  0  0  0  0  0  0  0  0
   -1.6180    2.0620   -0.2530 H   0  0  0  0  0  0  0  0  0  0  0  0
   -3.9010   -0.4610    0.0530 C   0  0  0  0  0  0  0  0  0  0  0  0
   -4.9730   -0.6410    0.0840 H   0  0  0  0  0  0  0  0  0  0  0  0
   -3.4130    0.8430   -0.0970 C   0  0  0  0  0  0  0  0  0  0  0  0
   -1.1060   -3.5580    0.3760 O   0  0  0  0  0  0  0  0  0  0  0  0
    2.9970    0.7490    0.6460 C   0  0  0  0  0  0  0  0  0  0  0  0
   -3.5410   -2.7870    0.3090 O   0  0  0  0  0  0  0  0  0  0  0  0
   -2.7810   -3.4160    0.3750 H   0  0  0  0  0  0  0  0  0  0  0  0
    2.1990    1.5530    1.4180 O   0  0  0  0  0  0  0  0  0  0  0  0
    1.2740    1.2830    1.2860 H   0  0  0  0  0  0  0  0  0  0  0  0
   -4.3830    1.8050   -0.1930 O   0  0  0  0  0  0  0  0  0  0  0  0
    3.4290   -1.1150   -0.8140 C   0  0  0  0  0  0  0  0  0  0  0  0
    3.1040   -1.9820   -1.3860 H   0  0  0  0  0  0  0  0  0  0  0  0
    4.3430    1.1150    0.5830 C   0  0  0  0  0  0  0  0  0  0  0  0
    4.6930    1.9880    1.1270 H   0  0  0  0  0  0  0  0  0  0  0  0
   -3.9450    3.1510   -0.3380 C   0  0  0  0  0  0  0  0  0  0  0  0
   -4.8340    3.7870   -0.3950 H   0  0  0  0  0  0  0  0  0  0  0  0
   -3.3810    3.2830   -1.2670 H   0  0  0  0  0  0  0  0  0  0  0  0
   -3.3610    3.4720    0.5300 H   0  0  0  0  0  0  0  0  0  0  0  0
    4.7770   -0.7470   -0.8820 C   0  0  0  0  0  0  0  0  0  0  0  0
    5.4680   -1.3300   -1.4860 H   0  0  0  0  0  0  0  0  0  0  0  0
    5.2340    0.3650   -0.1800 C   0  0  0  0  0  0  0  0  0  0  0  0
    6.2810    0.6500   -0.2320 H   0  0  0  0  0  0  0  0  0  0  0  0
  1  4  2  0  0  0  0
  1  7  1  0  0  0  0
  1  9  1  0  0  0  0
  2  3  1  0  0  0  0
  2  6  2  0  0  0  0
  2  8  1  0  0  0  0
  3  4  1  0  0  0  0
  3 15  2  0  0  0  0
  4  5  1  0  0  0  0
  6  7  1  0  0  0  0
  6 10  1  0  0  0  0
  8 12  2  0  0  0  0
  8 17  1  0  0  0  0
  9 16  2  0  0  0  0
  9 22  1  0  0  0  0
 10 11  1  0  0  0  0
 10 14  2  0  0  0  0
 12 13  1  0  0  0  0
 12 14  1  0  0  0  0
 14 21  1  0  0  0  0
 16 19  1  0  0  0  0
 16 24  1  0  0  0  0
 17 18  1  0  0  0  0
 19 20  1  0  0  0  0
 21 26  1  0  0  0  0
 22 23  1  0  0  0  0
 22 30  2  0  0  0  0
 24 25  1  0  0  0  0
 24 32  2  0  0  0  0
 26 27  1  0  0  0  0
 26 28  1  0  0  0  0
 26 29  1  0  0  0  0
 30 31  1  0  0  0  0
 30 32  1  0  0  0  0
 32 33  1  0  0  0  0
M  END
>  <IDNUMBER>
AK-693/21087015

>  <NAME>
Echioidinin

>  <ADD_INFO>
http://www.specs.net/enter.php?specsid=AK-693/21087015

>  <H_ACCEPTORS>
1

>  <H_DONORS>
2

>  <ROTATABLE_BONDS>
2

>  <LOGP>
3.4100001

>  <LOGS>
-3.5999999

>  <TPSA>
75.989998

>  <PRICE>
N07

$$$$
AK-693/21087017
  MOE2011           3D

 77 81  0  0  1  0  0  0  0  0999 V2000
   -0.9200   -0.9350    0.1920 C   0  0  3  0  0  0  0  0  0  0  0  0
    0.4620   -1.5860   -0.3750 C   0  0  1  0  0  0  0  0  0  0  0  0
    2.8320   -0.4720   -0.9840 C   0  0  2  0  0  0  0  0  0  0  0  0
   -1.7110   -0.2340   -0.9610 C   0  0  1  0  0  0  0  0  0  0  0  0
    1.2850   -0.6060   -1.3300 C   0  0  3  0  0  0  0  0  0  0  0  0
    2.9430   -0.1310    0.5290 C   0  0  3  0  0  0  0  0  0  0  0  0
   -3.1390    0.3230   -0.6490 C   0  0  3  0  0  0  0  0  0  0  0  0
    4.3150    0.4560    0.9980 C   0  0  0  0  0  0  0  0  0  0  0  0
    3.4800    0.6320   -1.8090 C   0  0  0  0  0  0  0  0  0  0  0  0
    3.2800    0.6230   -2.8800 H   0  0  0  0  0  0  0  0  0  0  0  0
   -3.4690    1.7550   -0.0820 C   0  0  3  0  0  0  0  0  0  0  0  0
   -4.0110   -0.6670    0.2050 C   0  0  1  0  0  0  0  0  0  0  0  0
    4.6580    1.6520    0.0990 C   0  0  0  0  0  0  0  0  0  0  0  0
    4.2720    1.5990   -1.3320 C   0  0  0  0  0  0  0  0  0  0  0  0
    4.6860    2.3700   -1.9720 H   0  0  0  0  0  0  0  0  0  0  0  0
    1.3400   -2.1600    0.7840 C   0  0  0  0  0  0  0  0  0  0  0  0
    0.7140   -2.5730    1.5830 H   0  0  0  0  0  0  0  0  0  0  0  0
    1.8730   -3.0480    0.4220 H   0  0  0  0  0  0  0  0  0  0  0  0
   -1.8870   -2.0290    0.7570 C   0  0  0  0  0  0  0  0  0  0  0  0
   -2.1230   -2.7740   -0.0090 H   0  0  0  0  0  0  0  0  0  0  0  0
   -1.4160   -2.5760    1.5810 H   0  0  0  0  0  0  0  0  0  0  0  0
   -0.8730    0.6400   -1.8940 C   0  0  0  0  0  0  0  0  0  0  0  0
   -0.9350    0.2150   -2.9070 H   0  0  0  0  0  0  0  0  0  0  0  0
   -1.2840    1.6380   -2.0020 H   0  0  0  0  0  0  0  0  0  0  0  0
    0.5940    0.7630   -1.5320 C   0  0  0  0  0  0  0  0  0  0  0  0
    0.7150    1.4220   -0.6700 H   0  0  0  0  0  0  0  0  0  0  0  0
    1.0700    1.2980   -2.3630 H   0  0  0  0  0  0  0  0  0  0  0  0
    2.3880   -1.2480    1.4250 C   0  0  0  0  0  0  0  0  0  0  0  0
    3.1960   -1.8910    1.7920 H   0  0  0  0  0  0  0  0  0  0  0  0
    1.9620   -0.7940    2.3280 H   0  0  0  0  0  0  0  0  0  0  0  0
   -2.4910    2.9120   -0.0860 C   0  0  0  0  0  0  0  0  0  0  0  0
   -4.2250    1.5080    1.2320 C   0  0  0  0  0  0  0  0  0  0  0  0
   -3.5550    1.3520    2.0820 H   0  0  0  0  0  0  0  0  0  0  0  0
   -4.8890    2.3420    1.4850 H   0  0  0  0  0  0  0  0  0  0  0  0
   -3.2150   -1.4670    1.2630 C   0  0  0  0  0  0  0  0  0  0  0  0
   -3.0310   -0.8640    2.1590 H   0  0  0  0  0  0  0  0  0  0  0  0
   -3.8280   -2.3040    1.6250 H   0  0  0  0  0  0  0  0  0  0  0  0
   -5.0210    0.2440    0.9320 C   0  0  0  0  0  0  0  0  0  0  0  0
   -5.8680    0.4920    0.2790 H   0  0  0  0  0  0  0  0  0  0  0  0
   -5.4290   -0.2060    1.8430 H   0  0  0  0  0  0  0  0  0  0  0  0
    5.2960    2.6270    0.4930 O   0  0  0  0  0  0  0  0  0  0  0  0
   -1.6990    3.2580    0.9420 C   0  0  0  0  0  0  0  0  0  0  0  0
   -1.6730    2.7060    1.8720 H   0  0  0  0  0  0  0  0  0  0  0  0
   -1.0590    4.1340    0.8910 H   0  0  0  0  0  0  0  0  0  0  0  0
   -0.6230    0.0250    1.3640 C   0  0  0  0  0  0  0  0  0  0  0  0
   -1.5140    0.5560    1.6860 H   0  0  0  0  0  0  0  0  0  0  0  0
    0.1230    0.7820    1.1390 H   0  0  0  0  0  0  0  0  0  0  0  0
   -0.2780   -0.5200    2.2480 H   0  0  0  0  0  0  0  0  0  0  0  0
    0.1280   -2.8370   -1.2600 C   0  0  0  0  0  0  0  0  0  0  0  0
    1.0360   -3.2470   -1.7200 H   0  0  0  0  0  0  0  0  0  0  0  0
   -0.5570   -2.5980   -2.0780 H   0  0  0  0  0  0  0  0  0  0  0  0
   -0.3040   -3.6540   -0.6720 H   0  0  0  0  0  0  0  0  0  0  0  0
    3.5860   -1.7610   -1.4000 C   0  0  0  0  0  0  0  0  0  0  0  0
    3.1670   -2.1850   -2.3210 H   0  0  0  0  0  0  0  0  0  0  0  0
    3.5720   -2.5440   -0.6410 H   0  0  0  0  0  0  0  0  0  0  0  0
    4.6420   -1.5750   -1.6220 H   0  0  0  0  0  0  0  0  0  0  0  0
    5.5040   -0.5160    0.9380 C   0  0  0  0  0  0  0  0  0  0  0  0
    5.2940   -1.4620    1.4430 H   0  0  0  0  0  0  0  0  0  0  0  0
    6.3840   -0.0790    1.4260 H   0  0  0  0  0  0  0  0  0  0  0  0
    5.8170   -0.7310   -0.0860 H   0  0  0  0  0  0  0  0  0  0  0  0
    4.1910    0.9660    2.4530 C   0  0  0  0  0  0  0  0  0  0  0  0
    4.0120    0.1450    3.1550 H   0  0  0  0  0  0  0  0  0  0  0  0
    3.3720    1.6870    2.5510 H   0  0  0  0  0  0  0  0  0  0  0  0
    5.1060    1.4740    2.7810 H   0  0  0  0  0  0  0  0  0  0  0  0
   -4.7640   -1.6550   -0.7060 C   0  0  0  0  0  0  0  0  0  0  0  0
   -5.4290   -2.3010   -0.1230 H   0  0  0  0  0  0  0  0  0  0  0  0
   -4.0730   -2.2970   -1.2630 H   0  0  0  0  0  0  0  0  0  0  0  0
   -5.3840   -1.1260   -1.4390 H   0  0  0  0  0  0  0  0  0  0  0  0
   -2.5510    3.8180   -1.2970 C   0  0  0  0  0  0  0  0  0  0  0  0
   -2.6200    3.2470   -2.2270 H   0  0  0  0  0  0  0  0  0  0  0  0
   -1.6690    4.4640   -1.3710 H   0  0  0  0  0  0  0  0  0  0  0  0
   -3.4380    4.4570   -1.2350 H   0  0  0  0  0  0  0  0  0  0  0  0
   -1.9690   -1.0780   -1.6210 H   0  0  0  0  0  0  0  0  0  0  0  0
    1.2540   -1.0400   -2.3420 H   0  0  0  0  0  0  0  0  0  0  0  0
    2.2520    0.7100    0.6830 H   0  0  0  0  0  0  0  0  0  0  0  0
   -3.6010    0.3620   -1.6510 H   0  0  0  0  0  0  0  0  0  0  0  0
   -4.2760    2.1140   -0.7470 H   0  0  0  0  0  0  0  0  0  0  0  0
  1  2  1  0  0  0  0
  1  4  1  0  0  0  0
  1 19  1  0  0  0  0
  1 45  1  0  0  0  0
  2  5  1  0  0  0  0
  2 16  1  0  0  0  0
  2 49  1  0  0  0  0
  3  5  1  0  0  0  0
  3  6  1  0  0  0  0
  3  9  1  0  0  0  0
  3 53  1  0  0  0  0
  4  7  1  0  0  0  0
  4 22  1  0  0  0  0
  4 73  1  0  0  0  0
  5 25  1  0  0  0  0
  5 74  1  0  0  0  0
  6  8  1  0  0  0  0
  6 28  1  0  0  0  0
  6 75  1  0  0  0  0
  7 11  1  0  0  0  0
  7 12  1  0  0  0  0
  7 76  1  0  0  0  0
  8 13  1  0  0  0  0
  8 57  1  0  0  0  0
  8 61  1  0  0  0  0
  9 10  1  0  0  0  0
  9 14  2  0  0  0  0
 11 31  1  0  0  0  0
 11 32  1  0  0  0  0
 11 77  1  0  0  0  0
 12 35  1  0  0  0  0
 12 38  1  0  0  0  0
 12 65  1  0  0  0  0
 13 14  1  0  0  0  0
 13 41  2  0  0  0  0
 14 15  1  0  0  0  0
 16 17  1  0  0  0  0
 16 18  1  0  0  0  0
 16 28  1  0  0  0  0
 19 20  1  0  0  0  0
 19 21  1  0  0  0  0
 19 35  1  0  0  0  0
 22 23  1  0  0  0  0
 22 24  1  0  0  0  0
 22 25  1  0  0  0  0
 25 26  1  0  0  0  0
 25 27  1  0  0  0  0
 28 29  1  0  0  0  0
 28 30  1  0  0  0  0
 31 42  2  0  0  0  0
 31 69  1  0  0  0  0
 32 33  1  0  0  0  0
 32 34  1  0  0  0  0
 32 38  1  0  0  0  0
 35 36  1  0  0  0  0
 35 37  1  0  0  0  0
 38 39  1  0  0  0  0
 38 40  1  0  0  0  0
 42 43  1  0  0  0  0
 42 44  1  0  0  0  0
 45 46  1  0  0  0  0
 45 47  1  0  0  0  0
 45 48  1  0  0  0  0
 49 50  1  0  0  0  0
 49 51  1  0  0  0  0
 49 52  1  0  0  0  0
 53 54  1  0  0  0  0
 53 55  1  0  0  0  0
 53 56  1  0  0  0  0
 57 58  1  0  0  0  0
 57 59  1  0  0  0  0
 57 60  1  0  0  0  0
 61 62  1  0  0  0  0
 61 63  1  0  0  0  0
 61 64  1  0  0  0  0
 65 66  1  0  0  0  0
 65 67  1  0  0  0  0
 65 68  1  0  0  0  0
 69 70  1  0  0  0  0
 69 71  1  0  0  0  0
 69 72  1  0  0  0  0
M  END
>  <IDNUMBER>
AK-693/21087017

>  <NAME>
Glochidone

>  <ADD_INFO>
http://www.specs.net/enter.php?specsid=AK-693/21087017

>  <H_ACCEPTORS>
1

>  <H_DONORS>
0

>  <ROTATABLE_BONDS>
1

>  <LOGP>
8.8000002

>  <LOGS>
-9.79

>  <TPSA>
17.07

>  <PRICE>
N07

$$$$
AK-693/21087018
  MOE2011           3D

 55 58  0  0  1  0  0  0  0  0999 V2000
   -3.7750   -0.0260   -0.1650 C   0  0  1  0  0  0  0  0  0  0  0  0
   -3.3240    0.6130    1.0380 C   0  0  1  0  0  0  0  0  0  0  0  0
   -2.9380   -1.2630    0.2610 C   0  0  2  0  0  0  0  0  0  0  0  0
   -2.4520    1.5260   -0.1720 C   0  0  3  0  0  0  0  0  0  0  0  0
   -3.4520   -1.4120    1.7060 O   0  0  0  0  0  0  0  0  0  0  0  0
   -3.1160    0.8790   -1.7180 O   0  0  0  0  0  0  0  0  0  0  0  0
   -4.4660   -0.2610   -1.3640 C   0  0  0  0  0  0  0  0  0  0  0  0
   -5.3160    0.2950   -1.7710 H   0  0  0  0  0  0  0  0  0  0  0  0
   -4.1430   -1.0580   -2.0360 H   0  0  0  0  0  0  0  0  0  0  0  0
   -4.0530   -0.0850    2.0740 C   0  0  0  0  0  0  0  0  0  0  0  0
   -5.1390   -0.1460    1.9610 H   0  0  0  0  0  0  0  0  0  0  0  0
   -3.7730    0.1410    3.1060 H   0  0  0  0  0  0  0  0  0  0  0  0
   -1.4710   -1.5510    0.0860 C   0  0  0  0  0  0  0  0  0  0  0  0
   -0.9410    1.5570   -0.2570 C   0  0  0  0  0  0  0  0  0  0  0  0
   -0.6120   -1.7340    1.1760 C   0  0  0  0  0  0  0  0  0  0  0  0
   -0.9880   -1.6250    2.1920 H   0  0  0  0  0  0  0  0  0  0  0  0
   -0.1660    1.7620    0.8930 C   0  0  0  0  0  0  0  0  0  0  0  0
   -0.6410    1.8620    1.8660 H   0  0  0  0  0  0  0  0  0  0  0  0
    0.7420   -2.0490    0.9920 C   0  0  0  0  0  0  0  0  0  0  0  0
    1.2310    1.8610    0.8260 C   0  0  0  0  0  0  0  0  0  0  0  0
    1.2500   -2.2570   -0.3010 C   0  0  0  0  0  0  0  0  0  0  0  0
    1.8880    1.7290   -0.4070 C   0  0  0  0  0  0  0  0  0  0  0  0
   -4.4260    1.4640   -0.2340 O   0  0  0  0  0  0  0  0  0  0  0  0
   -4.2900    1.7720   -1.1670 H   0  0  0  0  0  0  0  0  0  0  0  0
   -0.9530   -1.7430   -1.2000 C   0  0  0  0  0  0  0  0  0  0  0  0
   -1.5920   -1.6280   -2.0730 H   0  0  0  0  0  0  0  0  0  0  0  0
   -0.2830    1.5160   -1.4890 C   0  0  0  0  0  0  0  0  0  0  0  0
   -0.8490    1.4110   -2.4120 H   0  0  0  0  0  0  0  0  0  0  0  0
    0.3900   -2.0920   -1.3920 C   0  0  0  0  0  0  0  0  0  0  0  0
    0.7270   -2.2330   -2.4130 H   0  0  0  0  0  0  0  0  0  0  0  0
    1.1140    1.5850   -1.5630 C   0  0  0  0  0  0  0  0  0  0  0  0
    1.5650    1.5160   -2.5480 H   0  0  0  0  0  0  0  0  0  0  0  0
    1.4480   -2.1940    2.1610 O   0  0  0  0  0  0  0  0  0  0  0  0
    1.8320    2.0250    2.0500 O   0  0  0  0  0  0  0  0  0  0  0  0
    2.5610   -2.6400   -0.4110 O   0  0  0  0  0  0  0  0  0  0  0  0
    3.2570    1.7410   -0.4010 O   0  0  0  0  0  0  0  0  0  0  0  0
    2.7450   -1.6030    2.1550 C   0  0  0  0  0  0  0  0  0  0  0  0
    2.9600   -1.2690    3.1750 H   0  0  0  0  0  0  0  0  0  0  0  0
    2.8140   -0.7290    1.5000 H   0  0  0  0  0  0  0  0  0  0  0  0
    3.4970   -2.3500    1.8880 H   0  0  0  0  0  0  0  0  0  0  0  0
    2.9400    2.9200    2.0730 C   0  0  0  0  0  0  0  0  0  0  0  0
    2.9980    3.3470    3.0790 H   0  0  0  0  0  0  0  0  0  0  0  0
    2.8240    3.7510    1.3690 H   0  0  0  0  0  0  0  0  0  0  0  0
    3.8720    2.3760    1.8960 H   0  0  0  0  0  0  0  0  0  0  0  0
    3.0580   -2.9380   -1.7080 C   0  0  0  0  0  0  0  0  0  0  0  0
    4.1020   -3.2460   -1.6030 H   0  0  0  0  0  0  0  0  0  0  0  0
    3.0360   -2.0530   -2.3530 H   0  0  0  0  0  0  0  0  0  0  0  0
    2.5100   -3.7720   -2.1600 H   0  0  0  0  0  0  0  0  0  0  0  0
    3.9240    1.4090   -1.6110 C   0  0  0  0  0  0  0  0  0  0  0  0
    4.9970    1.3690   -1.4000 H   0  0  0  0  0  0  0  0  0  0  0  0
    3.7640    2.1800   -2.3710 H   0  0  0  0  0  0  0  0  0  0  0  0
    3.6210    0.4220   -1.9760 H   0  0  0  0  0  0  0  0  0  0  0  0
   -2.3510    0.4840    1.5420 H   0  0  0  0  0  0  0  0  0  0  0  0
   -3.4140   -2.1500   -0.1860 H   0  0  0  0  0  0  0  0  0  0  0  0
   -2.7440    2.5940   -0.2030 H   0  0  0  0  0  0  0  0  0  0  0  0
  1  2  1  0  0  0  0
  1  3  1  0  0  0  0
  1  7  1  0  0  0  0
  1 23  1  0  0  0  0
  2  4  1  0  0  0  0
  2 10  1  0  0  0  0
  2 53  1  0  0  0  0
  3  5  1  0  0  0  0
  3 13  1  0  0  0  0
  3 54  1  0  0  0  0
  4  6  1  0  0  0  0
  4 14  1  0  0  0  0
  4 55  1  0  0  0  0
  5 10  1  0  0  0  0
  6  7  1  0  0  0  0
  7  8  1  0  0  0  0
  7  9  1  0  0  0  0
 10 11  1  0  0  0  0
 10 12  1  0  0  0  0
 13 15  2  0  0  0  0
 13 25  1  0  0  0  0
 14 17  2  0  0  0  0
 14 27  1  0  0  0  0
 15 16  1  0  0  0  0
 15 19  1  0  0  0  0
 17 18  1  0  0  0  0
 17 20  1  0  0  0  0
 19 21  2  0  0  0  0
 19 33  1  0  0  0  0
 20 22  2  0  0  0  0
 20 34  1  0  0  0  0
 21 29  1  0  0  0  0
 21 35  1  0  0  0  0
 22 31  1  0  0  0  0
 22 36  1  0  0  0  0
 23 24  1  0  0  0  0
 25 26  1  0  0  0  0
 25 29  2  0  0  0  0
 27 28  1  0  0  0  0
 27 31  2  0  0  0  0
 29 30  1  0  0  0  0
 31 32  1  0  0  0  0
 33 37  1  0  0  0  0
 34 41  1  0  0  0  0
 35 45  1  0  0  0  0
 36 49  1  0  0  0  0
 37 38  1  0  0  0  0
 37 39  1  0  0  0  0
 37 40  1  0  0  0  0
 41 42  1  0  0  0  0
 41 43  1  0  0  0  0
 41 44  1  0  0  0  0
 45 46  1  0  0  0  0
 45 47  1  0  0  0  0
 45 48  1  0  0  0  0
 49 50  1  0  0  0  0
 49 51  1  0  0  0  0
 49 52  1  0  0  0  0
M  END
>  <IDNUMBER>
AK-693/21087018

>  <NAME>
Gmelinol

>  <ADD_INFO>
http://www.specs.net/enter.php?specsid=AK-693/21087018

>  <H_ACCEPTORS>
3

>  <H_DONORS>
1

>  <ROTATABLE_BONDS>
6

>  <LOGP>
1.12

>  <LOGS>
-2.5799999

>  <TPSA>
75.610001

>  <PRICE>
N07

$$$$
AK-693/21087020
  MOE2011           3D

 44 46  0  0  0  0  0  0  0  0999 V2000
   -0.2770    1.8560    0.1320 C   0  0  0  0  0  0  0  0  0  0  0  0
   -0.3130    0.4580    0.2070 C   0  0  0  0  0  0  0  0  0  0  0  0
    2.0880    0.4210    0.0500 C   0  0  0  0  0  0  0  0  0  0  0  0
    2.1320    1.8240   -0.0450 C   0  0  0  0  0  0  0  0  0  0  0  0
    0.8820   -0.3140    0.1730 C   0  0  0  0  0  0  0  0  0  0  0  0
    0.9360    2.5370   -0.0040 C   0  0  0  0  0  0  0  0  0  0  0  0
   -1.5310    2.6230    0.2270 C   0  0  0  0  0  0  0  0  0  0  0  0
   -1.5030   -0.2110    0.3460 O   0  0  0  0  0  0  0  0  0  0  0  0
    3.3260   -0.2710    0.0320 O   0  0  0  0  0  0  0  0  0  0  0  0
    3.4220    2.4960   -0.1760 C   0  0  0  0  0  0  0  0  0  0  0  0
    3.4370    3.5790   -0.2560 H   0  0  0  0  0  0  0  0  0  0  0  0
    4.5680    0.3370   -0.0860 C   0  0  0  0  0  0  0  0  0  0  0  0
   -2.7900    1.8590    0.4980 C   0  0  0  0  0  0  0  0  0  0  0  0
   -2.9060    1.8210    1.5880 H   0  0  0  0  0  0  0  0  0  0  0  0
   -3.6410    2.4050    0.0750 H   0  0  0  0  0  0  0  0  0  0  0  0
   -2.6930    0.4580   -0.0990 C   0  0  0  0  0  0  0  0  0  0  0  0
    0.8030   -1.8690    0.2700 C   0  0  0  0  0  0  0  0  0  0  0  0
    4.5600    1.7990   -0.1950 C   0  0  0  0  0  0  0  0  0  0  0  0
    5.5240    2.2840   -0.2900 H   0  0  0  0  0  0  0  0  0  0  0  0
   -1.4860    3.8490    0.1420 O   0  0  0  0  0  0  0  0  0  0  0  0
   -0.0770   -2.4160   -0.8630 C   0  0  0  0  0  0  0  0  0  0  0  0
    0.2130   -2.1050   -1.8670 H   0  0  0  0  0  0  0  0  0  0  0  0
    5.6140   -0.2990   -0.0990 O   0  0  0  0  0  0  0  0  0  0  0  0
    0.9690    3.9100   -0.0840 O   0  0  0  0  0  0  0  0  0  0  0  0
    0.0350    4.2350   -0.0230 H   0  0  0  0  0  0  0  0  0  0  0  0
   -1.1390   -3.2280   -0.7570 C   0  0  0  0  0  0  0  0  0  0  0  0
   -1.6780   -3.5460   -1.6450 H   0  0  0  0  0  0  0  0  0  0  0  0
   -1.5040   -3.5900    0.1970 H   0  0  0  0  0  0  0  0  0  0  0  0
   -3.8630   -0.3850    0.4330 C   0  0  0  0  0  0  0  0  0  0  0  0
   -4.8310    0.0440    0.1540 H   0  0  0  0  0  0  0  0  0  0  0  0
   -3.8200   -0.4670    1.5260 H   0  0  0  0  0  0  0  0  0  0  0  0
   -3.8140   -1.4100    0.0480 H   0  0  0  0  0  0  0  0  0  0  0  0
   -2.7620    0.4590   -1.6350 C   0  0  0  0  0  0  0  0  0  0  0  0
   -3.7000    0.8980   -1.9910 H   0  0  0  0  0  0  0  0  0  0  0  0
   -2.6870   -0.5610   -2.0270 H   0  0  0  0  0  0  0  0  0  0  0  0
   -1.9360    1.0200   -2.0850 H   0  0  0  0  0  0  0  0  0  0  0  0
    0.3120   -2.2400    1.6950 C   0  0  0  0  0  0  0  0  0  0  0  0
    0.3090   -3.3260    1.8490 H   0  0  0  0  0  0  0  0  0  0  0  0
   -0.7010   -1.8870    1.9090 H   0  0  0  0  0  0  0  0  0  0  0  0
    0.9710   -1.8070    2.4580 H   0  0  0  0  0  0  0  0  0  0  0  0
    2.1320   -2.6460    0.0870 C   0  0  0  0  0  0  0  0  0  0  0  0
    1.9630   -3.7310    0.1130 H   0  0  0  0  0  0  0  0  0  0  0  0
    2.8430   -2.4340    0.8930 H   0  0  0  0  0  0  0  0  0  0  0  0
    2.6090   -2.4280   -0.8760 H   0  0  0  0  0  0  0  0  0  0  0  0
  1  2  1  0  0  0  0
  1  6  2  0  0  0  0
  1  7  1  0  0  0  0
  2  5  2  0  0  0  0
  2  8  1  0  0  0  0
  3  4  2  0  0  0  0
  3  5  1  0  0  0  0
  3  9  1  0  0  0  0
  4  6  1  0  0  0  0
  4 10  1  0  0  0  0
  5 17  1  0  0  0  0
  6 24  1  0  0  0  0
  7 13  1  0  0  0  0
  7 20  2  0  0  0  0
  8 16  1  0  0  0  0
  9 12  1  0  0  0  0
 10 11  1  0  0  0  0
 10 18  2  0  0  0  0
 12 18  1  0  0  0  0
 12 23  2  0  0  0  0
 13 14  1  0  0  0  0
 13 15  1  0  0  0  0
 13 16  1  0  0  0  0
 16 29  1  0  0  0  0
 16 33  1  0  0  0  0
 17 21  1  0  0  0  0
 17 37  1  0  0  0  0
 17 41  1  0  0  0  0
 18 19  1  0  0  0  0
 21 22  1  0  0  0  0
 21 26  2  0  0  0  0
 24 25  1  0  0  0  0
 26 27  1  0  0  0  0
 26 28  1  0  0  0  0
 29 30  1  0  0  0  0
 29 31  1  0  0  0  0
 29 32  1  0  0  0  0
 33 34  1  0  0  0  0
 33 35  1  0  0  0  0
 33 36  1  0  0  0  0
 37 38  1  0  0  0  0
 37 39  1  0  0  0  0
 37 40  1  0  0  0  0
 41 42  1  0  0  0  0
 41 43  1  0  0  0  0
 41 44  1  0  0  0  0
M  END
>  <IDNUMBER>
AK-693/21087020

>  <NAME>
Clausenidin

>  <ADD_INFO>
http://www.specs.net/enter.php?specsid=AK-693/21087020

>  <H_ACCEPTORS>
2

>  <H_DONORS>
1

>  <ROTATABLE_BONDS>
2

>  <LOGP>
4.5900002

>  <LOGS>
-4.9400001

>  <TPSA>
72.830002

>  <PRICE>
N07

$$$$
AK-693/21096012
  MOE2011           3D

 77 82  0  0  1  0  0  0  0  0999 V2000
    2.3690    1.2100    0.6150 C   0  0  2  0  0  0  0  0  0  0  0  0
    2.9550    1.5380    1.9870 C   0  0  2  0  0  0  0  0  0  0  0  0
    1.0310    1.8250    0.0220 C   0  0  1  0  0  0  0  0  0  0  0  0
    2.9910   -0.0480   -0.0400 C   0  0  2  0  0  0  0  0  0  0  0  0
    3.3310    2.2790    0.8370 O   0  0  0  0  0  0  0  0  0  0  0  0
   -1.1740    0.9940   -1.2180 C   0  0  2  0  0  0  0  0  0  0  0  0
    0.2980    0.6790   -0.7960 C   0  0  1  0  0  0  0  0  0  0  0  0
    4.0770    0.7450    2.5440 C   0  0  0  0  0  0  0  0  0  0  0  0
   -1.9350    1.3880    0.0560 C   0  0  2  0  0  0  0  0  0  0  0  0
    4.5470    0.0110    0.2330 C   0  0  1  0  0  0  0  0  0  0  0  0
    4.8150   -0.0020    1.6680 O   0  0  0  0  0  0  0  0  0  0  0  0
   -2.1020   -0.1630   -1.6930 C   0  0  2  0  0  0  0  0  0  0  0  0
    0.0850    2.3270    1.1810 C   0  0  3  0  0  0  0  0  0  0  0  0
   -3.4140    1.2860   -0.3150 C   0  0  0  0  0  0  0  0  0  0  0  0
   -3.4560    0.2380   -1.3220 O   0  0  0  0  0  0  0  0  0  0  0  0
    5.3490   -1.0840   -0.4250 C   0  0  0  0  0  0  0  0  0  0  0  0
   -1.3730    2.6090    0.7550 C   0  0  0  0  0  0  0  0  0  0  0  0
   -1.9660    2.8340    1.6510 H   0  0  0  0  0  0  0  0  0  0  0  0
   -1.4300    3.5150    0.1440 H   0  0  0  0  0  0  0  0  0  0  0  0
   -1.8720   -1.6190   -1.2800 C   0  0  0  0  0  0  0  0  0  0  0  0
   -0.8550   -1.9540   -1.4960 H   0  0  0  0  0  0  0  0  0  0  0  0
   -2.5100   -2.2520   -1.9140 H   0  0  0  0  0  0  0  0  0  0  0  0
    2.6840   -0.0100   -1.5510 C   0  0  0  0  0  0  0  0  0  0  0  0
    3.2040    0.8480   -1.9970 H   0  0  0  0  0  0  0  0  0  0  0  0
    3.0900   -0.8950   -2.0560 H   0  0  0  0  0  0  0  0  0  0  0  0
   -2.1820   -1.9950    0.1450 C   0  0  0  0  0  0  0  0  0  0  0  0
    1.1920    0.0910   -1.9080 C   0  0  0  0  0  0  0  0  0  0  0  0
    0.8390   -0.9120   -2.1620 H   0  0  0  0  0  0  0  0  0  0  0  0
    1.1160    0.6610   -2.8380 H   0  0  0  0  0  0  0  0  0  0  0  0
    4.3060    0.7570    3.7460 O   0  0  0  0  0  0  0  0  0  0  0  0
    5.9530   -1.0430   -1.6680 C   0  0  0  0  0  0  0  0  0  0  0  0
    6.0090   -0.2940   -2.4460 H   0  0  0  0  0  0  0  0  0  0  0  0
    5.6840   -2.3650    0.1050 C   0  0  0  0  0  0  0  0  0  0  0  0
    5.4100   -2.7670    1.0700 H   0  0  0  0  0  0  0  0  0  0  0  0
    6.5960   -2.2070   -1.9380 O   0  0  0  0  0  0  0  0  0  0  0  0
   -1.4240   -1.8030    1.0860 O   0  0  0  0  0  0  0  0  0  0  0  0
    6.4320   -3.0050   -0.8540 C   0  0  0  0  0  0  0  0  0  0  0  0
    6.9020   -3.9770   -0.9130 H   0  0  0  0  0  0  0  0  0  0  0  0
   -3.3970   -2.6090    0.2220 O   0  0  0  0  0  0  0  0  0  0  0  0
    1.4010    3.0350   -0.8870 C   0  0  0  0  0  0  0  0  0  0  0  0
    0.5300    3.5960   -1.2190 H   0  0  0  0  0  0  0  0  0  0  0  0
    1.9640    2.7310   -1.7730 H   0  0  0  0  0  0  0  0  0  0  0  0
    2.0190    3.7720   -0.3630 H   0  0  0  0  0  0  0  0  0  0  0  0
    2.4420   -1.3530    0.6000 C   0  0  0  0  0  0  0  0  0  0  0  0
    2.8300   -2.2370    0.0820 H   0  0  0  0  0  0  0  0  0  0  0  0
    1.3590   -1.4460    0.5760 H   0  0  0  0  0  0  0  0  0  0  0  0
    2.7170   -1.4410    1.6560 H   0  0  0  0  0  0  0  0  0  0  0  0
    0.5910    3.5230    1.7770 O   0  0  0  0  0  0  0  0  0  0  0  0
   -0.0190    3.7870    2.4860 H   0  0  0  0  0  0  0  0  0  0  0  0
   -1.2380    2.0810   -2.3320 C   0  0  0  0  0  0  0  0  0  0  0  0
   -1.2990    3.0970   -1.9420 H   0  0  0  0  0  0  0  0  0  0  0  0
   -2.1110    1.9600   -2.9830 H   0  0  0  0  0  0  0  0  0  0  0  0
   -0.3820    2.0400   -3.0090 H   0  0  0  0  0  0  0  0  0  0  0  0
   -4.2610    0.8340    0.8830 C   0  0  0  0  0  0  0  0  0  0  0  0
   -4.2930    1.6010    1.6640 H   0  0  0  0  0  0  0  0  0  0  0  0
   -3.8740   -0.0850    1.3290 H   0  0  0  0  0  0  0  0  0  0  0  0
   -5.2880    0.6090    0.5720 H   0  0  0  0  0  0  0  0  0  0  0  0
   -4.0650    2.5550   -0.8740 C   0  0  0  0  0  0  0  0  0  0  0  0
   -4.0250    3.3780   -0.1530 H   0  0  0  0  0  0  0  0  0  0  0  0
   -5.1190    2.3670   -1.1130 H   0  0  0  0  0  0  0  0  0  0  0  0
   -3.6200    2.8970   -1.8070 H   0  0  0  0  0  0  0  0  0  0  0  0
   -3.8070   -3.0790    1.5210 C   0  0  0  0  0  0  0  0  0  0  0  0
   -3.4900   -2.3750    2.3000 H   0  0  0  0  0  0  0  0  0  0  0  0
   -5.3290   -3.1440    1.5150 C   0  0  0  0  0  0  0  0  0  0  0  0
   -5.6900   -3.8140    0.7260 H   0  0  0  0  0  0  0  0  0  0  0  0
   -5.7510   -2.1560    1.3060 H   0  0  0  0  0  0  0  0  0  0  0  0
   -5.7160   -3.4930    2.4770 H   0  0  0  0  0  0  0  0  0  0  0  0
   -3.2060   -4.4560    1.7770 C   0  0  0  0  0  0  0  0  0  0  0  0
   -3.4820   -5.1580    0.9820 H   0  0  0  0  0  0  0  0  0  0  0  0
   -3.5410   -4.8630    2.7360 H   0  0  0  0  0  0  0  0  0  0  0  0
   -2.1120   -4.4080    1.7860 H   0  0  0  0  0  0  0  0  0  0  0  0
    0.1720   -0.1240   -0.0690 H   0  0  0  0  0  0  0  0  0  0  0  0
   -1.7710    0.5820    0.7830 H   0  0  0  0  0  0  0  0  0  0  0  0
    2.3400    2.0320    2.7250 H   0  0  0  0  0  0  0  0  0  0  0  0
    4.9670    0.9520   -0.1490 H   0  0  0  0  0  0  0  0  0  0  0  0
   -2.0890   -0.1930   -2.7910 H   0  0  0  0  0  0  0  0  0  0  0  0
    0.0680    1.5620    1.9680 H   0  0  0  0  0  0  0  0  0  0  0  0
  1  2  1  0  0  0  0
  1  3  1  0  0  0  0
  1  4  1  0  0  0  0
  1  5  1  0  0  0  0
  2  5  1  0  0  0  0
  2  8  1  0  0  0  0
  2 74  1  0  0  0  0
  3  7  1  0  0  0  0
  3 13  1  0  0  0  0
  3 40  1  0  0  0  0
  4 10  1  0  0  0  0
  4 23  1  0  0  0  0
  4 44  1  0  0  0  0
  6  7  1  0  0  0  0
  6  9  1  0  0  0  0
  6 12  1  0  0  0  0
  6 50  1  0  0  0  0
  7 27  1  0  0  0  0
  7 72  1  0  0  0  0
  8 11  1  0  0  0  0
  8 30  2  0  0  0  0
  9 14  1  0  0  0  0
  9 17  1  0  0  0  0
  9 73  1  0  0  0  0
 10 11  1  0  0  0  0
 10 16  1  0  0  0  0
 10 75  1  0  0  0  0
 12 15  1  0  0  0  0
 12 20  1  0  0  0  0
 12 76  1  0  0  0  0
 13 17  1  0  0  0  0
 13 48  1  0  0  0  0
 13 77  1  0  0  0  0
 14 15  1  0  0  0  0
 14 54  1  0  0  0  0
 14 58  1  0  0  0  0
 16 31  2  0  0  0  0
 16 33  1  0  0  0  0
 17 18  1  0  0  0  0
 17 19  1  0  0  0  0
 20 21  1  0  0  0  0
 20 22  1  0  0  0  0
 20 26  1  0  0  0  0
 23 24  1  0  0  0  0
 23 25  1  0  0  0  0
 23 27  1  0  0  0  0
 26 36  2  0  0  0  0
 26 39  1  0  0  0  0
 27 28  1  0  0  0  0
 27 29  1  0  0  0  0
 31 32  1  0  0  0  0
 31 35  1  0  0  0  0
 33 34  1  0  0  0  0
 33 37  2  0  0  0  0
 35 37  1  0  0  0  0
 37 38  1  0  0  0  0
 39 62  1  0  0  0  0
 40 41  1  0  0  0  0
 40 42  1  0  0  0  0
 40 43  1  0  0  0  0
 44 45  1  0  0  0  0
 44 46  1  0  0  0  0
 44 47  1  0  0  0  0
 48 49  1  0  0  0  0
 50 51  1  0  0  0  0
 50 52  1  0  0  0  0
 50 53  1  0  0  0  0
 54 55  1  0  0  0  0
 54 56  1  0  0  0  0
 54 57  1  0  0  0  0
 58 59  1  0  0  0  0
 58 60  1  0  0  0  0
 58 61  1  0  0  0  0
 62 63  1  0  0  0  0
 62 64  1  0  0  0  0
 62 68  1  0  0  0  0
 64 65  1  0  0  0  0
 64 66  1  0  0  0  0
 64 67  1  0  0  0  0
 68 69  1  0  0  0  0
 68 70  1  0  0  0  0
 68 71  1  0  0  0  0
M  END
>  <IDNUMBER>
AK-693/21096012

>  <NAME>
Isopropyl-epi-isoobacunoate

>  <ADD_INFO>
http://www.specs.net/enter.php?specsid=AK-693/21096012

>  <H_ACCEPTORS>
7

>  <H_DONORS>
1

>  <ROTATABLE_BONDS>
5

>  <LOGP>
3.0899999

>  <LOGS>
-5.0999999

>  <TPSA>
107.73

>  <PRICE>
N09

$$$$
AK-693/21096016
  MOE2011           3D

 32 34  0  0  0  0  0  0  0  0999 V2000
    0.1660    0.1180    0.1390 C   0  0  0  0  0  0  0  0  0  0  0  0
   -0.0750    1.4400    0.1260 C   0  0  0  0  0  0  0  0  0  0  0  0
    1.0440    2.4100    0.0440 C   0  0  0  0  0  0  0  0  0  0  0  0
    2.4570    1.8690    0.0070 C   0  0  0  0  0  0  0  0  0  0  0  0
    1.5350   -0.4330    0.0990 C   0  0  0  0  0  0  0  0  0  0  0  0
    2.6500    0.4100    0.0350 C   0  0  0  0  0  0  0  0  0  0  0  0
   -0.8330   -0.8350    0.1850 O   0  0  0  0  0  0  0  0  0  0  0  0
   -1.4580    2.0090    0.2140 C   0  0  0  0  0  0  0  0  0  0  0  0
   -1.4910    2.8440    0.9240 H   0  0  0  0  0  0  0  0  0  0  0  0
   -1.7480    2.4080   -0.7660 H   0  0  0  0  0  0  0  0  0  0  0  0
   -2.1900   -0.4000   -0.0190 C   0  0  0  0  0  0  0  0  0  0  0  0
    0.8540    3.6180    0.0030 O   0  0  0  0  0  0  0  0  0  0  0  0
    3.4040    2.6410   -0.0460 O   0  0  0  0  0  0  0  0  0  0  0  0
   -2.4540    0.9490    0.6670 C   0  0  0  0  0  0  0  0  0  0  0  0
   -3.4790    1.2940    0.4850 H   0  0  0  0  0  0  0  0  0  0  0  0
   -2.3460    0.8280    1.7540 H   0  0  0  0  0  0  0  0  0  0  0  0
    1.7630   -1.8190    0.1240 C   0  0  0  0  0  0  0  0  0  0  0  0
    0.9290   -2.5170    0.1740 H   0  0  0  0  0  0  0  0  0  0  0  0
    3.9540   -0.1060   -0.0030 C   0  0  0  0  0  0  0  0  0  0  0  0
    4.8120    0.5600   -0.0530 H   0  0  0  0  0  0  0  0  0  0  0  0
   -3.0820   -1.4720    0.6210 C   0  0  0  0  0  0  0  0  0  0  0  0
   -4.1450   -1.2370    0.5050 H   0  0  0  0  0  0  0  0  0  0  0  0
   -2.8620   -1.5740    1.6900 H   0  0  0  0  0  0  0  0  0  0  0  0
   -2.8920   -2.4560    0.1740 H   0  0  0  0  0  0  0  0  0  0  0  0
   -2.4770   -0.3580   -1.5270 C   0  0  0  0  0  0  0  0  0  0  0  0
   -3.5120   -0.0630   -1.7300 H   0  0  0  0  0  0  0  0  0  0  0  0
   -2.3030   -1.3410   -1.9810 H   0  0  0  0  0  0  0  0  0  0  0  0
   -1.8130    0.3370   -2.0520 H   0  0  0  0  0  0  0  0  0  0  0  0
    3.0600   -2.3400    0.0860 C   0  0  0  0  0  0  0  0  0  0  0  0
    3.2120   -3.4160    0.1060 H   0  0  0  0  0  0  0  0  0  0  0  0
    4.1550   -1.4830    0.0220 C   0  0  0  0  0  0  0  0  0  0  0  0
    5.1640   -1.8880   -0.0070 H   0  0  0  0  0  0  0  0  0  0  0  0
  1  2  2  0  0  0  0
  1  5  1  0  0  0  0
  1  7  1  0  0  0  0
  2  3  1  0  0  0  0
  2  8  1  0  0  0  0
  3  4  1  0  0  0  0
  3 12  2  0  0  0  0
  4  6  1  0  0  0  0
  4 13  2  0  0  0  0
  5  6  2  0  0  0  0
  5 17  1  0  0  0  0
  6 19  1  0  0  0  0
  7 11  1  0  0  0  0
  8  9  1  0  0  0  0
  8 10  1  0  0  0  0
  8 14  1  0  0  0  0
 11 14  1  0  0  0  0
 11 21  1  0  0  0  0
 11 25  1  0  0  0  0
 14 15  1  0  0  0  0
 14 16  1  0  0  0  0
 17 18  1  0  0  0  0
 17 29  2  0  0  0  0
 19 20  1  0  0  0  0
 19 31  2  0  0  0  0
 21 22  1  0  0  0  0
 21 23  1  0  0  0  0
 21 24  1  0  0  0  0
 25 26  1  0  0  0  0
 25 27  1  0  0  0  0
 25 28  1  0  0  0  0
 29 30  1  0  0  0  0
 29 31  1  0  0  0  0
 31 32  1  0  0  0  0
M  END
>  <IDNUMBER>
AK-693/21096016

>  <NAME>
beta-Lapachone

>  <ADD_INFO>
http://www.specs.net/enter.php?specsid=AK-693/21096016

>  <H_ACCEPTORS>
3

>  <H_DONORS>
0

>  <ROTATABLE_BONDS>
0

>  <LOGP>
3.25

>  <LOGS>
-3.75

>  <TPSA>
43.369999

>  <PRICE>
N07

$$$$
AK-693/21096019
  MOE2011           3D

 64 68  0  0  1  0  0  0  0  0999 V2000
   -0.9110    2.8210    1.2060 C   0  0  2  0  0  0  0  0  0  0  0  0
    0.4790    3.3360    0.9930 C   0  0  1  0  0  0  0  0  0  0  0  0
    0.1650    2.5060    2.1130 O   0  0  0  0  0  0  0  0  0  0  0  0
   -1.1690    1.7230    0.1930 C   0  0  2  0  0  0  0  0  0  0  0  0
    1.0910    2.6430   -0.1940 C   0  0  2  0  0  0  0  0  0  0  0  0
   -3.4150   -0.6130   -0.5310 C   0  0  1  0  0  0  0  0  0  0  0  0
   -0.1080    1.9690   -0.9160 C   0  0  2  0  0  0  0  0  0  0  0  0
   -2.5780    1.6290   -0.4050 C   0  0  2  0  0  0  0  0  0  0  0  0
   -3.5660   -1.7910   -1.5160 C   0  0  3  0  0  0  0  0  0  0  0  0
   -4.3600   -2.9140   -0.8410 C   0  0  2  0  0  0  0  0  0  0  0  0
   -2.7540   -1.0470    0.6620 O   0  0  0  0  0  0  0  0  0  0  0  0
   -2.6760    0.4220   -1.1760 O   0  0  0  0  0  0  0  0  0  0  0  0
    2.0400    1.6710    0.2750 O   0  0  0  0  0  0  0  0  0  0  0  0
   -3.6860   -3.3150    0.4790 C   0  0  3  0  0  0  0  0  0  0  0  0
    2.8900    1.1790   -0.6590 C   0  0  0  0  0  0  0  0  0  0  0  0
   -3.4710   -2.0800    1.3650 C   0  0  1  0  0  0  0  0  0  0  0  0
    3.8640    0.2460   -0.0340 C   0  0  0  0  0  0  0  0  0  0  0  0
   -2.9270    2.7460   -1.2380 O   0  0  0  0  0  0  0  0  0  0  0  0
    4.9060   -0.2520   -0.8370 C   0  0  0  0  0  0  0  0  0  0  0  0
    4.9540    0.0520   -1.8790 H   0  0  0  0  0  0  0  0  0  0  0  0
    5.8630   -1.1070   -0.2900 C   0  0  0  0  0  0  0  0  0  0  0  0
   -0.6520    2.8470   -2.0100 C   0  0  0  0  0  0  0  0  0  0  0  0
    0.0400    3.2250   -2.7580 H   0  0  0  0  0  0  0  0  0  0  0  0
   -1.9440    3.1800   -2.0810 C   0  0  0  0  0  0  0  0  0  0  0  0
   -2.3480    3.8530   -2.8260 H   0  0  0  0  0  0  0  0  0  0  0  0
    5.7620   -1.4590    1.0610 C   0  0  0  0  0  0  0  0  0  0  0  0
   -1.9770    3.6520    1.8370 C   0  0  0  0  0  0  0  0  0  0  0  0
   -1.6550    4.0520    2.8060 H   0  0  0  0  0  0  0  0  0  0  0  0
   -2.8820    3.0690    2.0230 H   0  0  0  0  0  0  0  0  0  0  0  0
    2.8920    1.4630   -1.8450 O   0  0  0  0  0  0  0  0  0  0  0  0
    3.7770   -0.1300    1.3150 C   0  0  0  0  0  0  0  0  0  0  0  0
    2.9780    0.2410    1.9530 H   0  0  0  0  0  0  0  0  0  0  0  0
    4.7310   -0.9860    1.8630 C   0  0  0  0  0  0  0  0  0  0  0  0
    4.6790   -1.2760    2.9090 H   0  0  0  0  0  0  0  0  0  0  0  0
   -2.2680   -2.3240   -1.8660 O   0  0  0  0  0  0  0  0  0  0  0  0
   -2.4150   -2.8450   -2.6800 H   0  0  0  0  0  0  0  0  0  0  0  0
   -4.4080   -4.0490   -1.7130 O   0  0  0  0  0  0  0  0  0  0  0  0
   -3.6650   -4.6270   -1.4410 H   0  0  0  0  0  0  0  0  0  0  0  0
   -2.4340   -3.9460    0.1580 O   0  0  0  0  0  0  0  0  0  0  0  0
   -1.9450   -3.3090   -0.4210 H   0  0  0  0  0  0  0  0  0  0  0  0
    6.9360   -1.6550   -0.9460 O   0  0  0  0  0  0  0  0  0  0  0  0
   -2.6540   -2.4120    2.6140 C   0  0  0  0  0  0  0  0  0  0  0  0
   -1.6400   -2.7400    2.3630 H   0  0  0  0  0  0  0  0  0  0  0  0
   -3.1410   -3.1840    3.2150 H   0  0  0  0  0  0  0  0  0  0  0  0
    6.7010   -2.2810    1.6230 O   0  0  0  0  0  0  0  0  0  0  0  0
    7.3320   -2.4740    0.9010 H   0  0  0  0  0  0  0  0  0  0  0  0
   -2.3120    4.7550    1.0060 O   0  0  0  0  0  0  0  0  0  0  0  0
   -1.5720    5.3860    1.0400 H   0  0  0  0  0  0  0  0  0  0  0  0
   -2.5290   -1.2350    3.4140 O   0  0  0  0  0  0  0  0  0  0  0  0
   -2.1350   -0.5650    2.8230 H   0  0  0  0  0  0  0  0  0  0  0  0
    7.0570   -1.3470   -2.3310 C   0  0  0  0  0  0  0  0  0  0  0  0
    7.9400   -1.8680   -2.7120 H   0  0  0  0  0  0  0  0  0  0  0  0
    7.2110   -0.2740   -2.4830 H   0  0  0  0  0  0  0  0  0  0  0  0
    6.1890   -1.7070   -2.8930 H   0  0  0  0  0  0  0  0  0  0  0  0
   -0.9280    0.7670    0.6770 H   0  0  0  0  0  0  0  0  0  0  0  0
    0.1830    1.0140   -1.3690 H   0  0  0  0  0  0  0  0  0  0  0  0
    0.7450    4.3670    1.1460 H   0  0  0  0  0  0  0  0  0  0  0  0
    1.6040    3.3830   -0.8230 H   0  0  0  0  0  0  0  0  0  0  0  0
   -4.4110   -0.2260   -0.2760 H   0  0  0  0  0  0  0  0  0  0  0  0
   -3.3250    1.6130    0.3960 H   0  0  0  0  0  0  0  0  0  0  0  0
   -4.0370   -1.4630   -2.4490 H   0  0  0  0  0  0  0  0  0  0  0  0
   -5.3880   -2.5850   -0.6560 H   0  0  0  0  0  0  0  0  0  0  0  0
   -4.2870   -4.0690    0.9980 H   0  0  0  0  0  0  0  0  0  0  0  0
   -4.4370   -1.6560    1.6690 H   0  0  0  0  0  0  0  0  0  0  0  0
  1  2  1  0  0  0  0
  1  3  1  0  0  0  0
  1  4  1  0  0  0  0
  1 27  1  0  0  0  0
  2  3  1  0  0  0  0
  2  5  1  0  0  0  0
  2 57  1  0  0  0  0
  4  7  1  0  0  0  0
  4  8  1  0  0  0  0
  4 55  1  0  0  0  0
  5  7  1  0  0  0  0
  5 13  1  0  0  0  0
  5 58  1  0  0  0  0
  6  9  1  0  0  0  0
  6 11  1  0  0  0  0
  6 12  1  0  0  0  0
  6 59  1  0  0  0  0
  7 22  1  0  0  0  0
  7 56  1  0  0  0  0
  8 12  1  0  0  0  0
  8 18  1  0  0  0  0
  8 60  1  0  0  0  0
  9 10  1  0  0  0  0
  9 35  1  0  0  0  0
  9 61  1  0  0  0  0
 10 14  1  0  0  0  0
 10 37  1  0  0  0  0
 10 62  1  0  0  0  0
 11 16  1  0  0  0  0
 13 15  1  0  0  0  0
 14 16  1  0  0  0  0
 14 39  1  0  0  0  0
 14 63  1  0  0  0  0
 15 17  1  0  0  0  0
 15 30  2  0  0  0  0
 16 42  1  0  0  0  0
 16 64  1  0  0  0  0
 17 19  2  0  0  0  0
 17 31  1  0  0  0  0
 18 24  1  0  0  0  0
 19 20  1  0  0  0  0
 19 21  1  0  0  0  0
 21 26  2  0  0  0  0
 21 41  1  0  0  0  0
 22 23  1  0  0  0  0
 22 24  2  0  0  0  0
 24 25  1  0  0  0  0
 26 33  1  0  0  0  0
 26 45  1  0  0  0  0
 27 28  1  0  0  0  0
 27 29  1  0  0  0  0
 27 47  1  0  0  0  0
 31 32  1  0  0  0  0
 31 33  2  0  0  0  0
 33 34  1  0  0  0  0
 35 36  1  0  0  0  0
 37 38  1  0  0  0  0
 39 40  1  0  0  0  0
 41 51  1  0  0  0  0
 42 43  1  0  0  0  0
 42 44  1  0  0  0  0
 42 49  1  0  0  0  0
 45 46  1  0  0  0  0
 47 48  1  0  0  0  0
 49 50  1  0  0  0  0
 51 52  1  0  0  0  0
 51 53  1  0  0  0  0
 51 54  1  0  0  0  0
M  END
>  <IDNUMBER>
AK-693/21096019

>  <NAME>
Picroside II (Amphicoside)

>  <ADD_INFO>
http://www.specs.net/enter.php?specsid=AK-693/21096019

>  <H_ACCEPTORS>
11

>  <H_DONORS>
6

>  <ROTATABLE_BONDS>
8

>  <LOGP>
-1.58

>  <LOGS>
-1.58

>  <TPSA>
197.13

>  <PRICE>
N07

$$$$
AK-693/21124002
  MOE2011           3D

 35 38  0  0  1  0  0  0  0  0999 V2000
   -1.6630   -1.2620    0.3100 C   0  0  1  0  0  0  0  0  0  0  0  0
   -0.3140   -1.7280    0.8940 C   0  0  2  0  0  0  0  0  0  0  0  0
   -0.7380   -0.4490    1.1310 O   0  0  0  0  0  0  0  0  0  0  0  0
    0.6640   -1.7690   -0.2540 C   0  0  2  0  0  0  0  0  0  0  0  0
    1.5990   -0.5730   -0.3830 C   0  0  0  0  0  0  0  0  0  0  0  0
   -1.4410   -1.5500   -1.1480 C   0  0  0  0  0  0  0  0  0  0  0  0
    1.3540    0.7180   -0.8780 C   0  0  0  0  0  0  0  0  0  0  0  0
   -0.1460   -1.8740   -1.4330 O   0  0  0  0  0  0  0  0  0  0  0  0
    2.4960    1.4640   -0.7950 O   0  0  0  0  0  0  0  0  0  0  0  0
    2.9810   -0.5720    0.0250 C   0  0  0  0  0  0  0  0  0  0  0  0
    3.4600    0.6870   -0.2560 C   0  0  0  0  0  0  0  0  0  0  0  0
    4.4230    1.1620   -0.1320 H   0  0  0  0  0  0  0  0  0  0  0  0
    0.1760    1.4850   -1.4540 C   0  0  0  0  0  0  0  0  0  0  0  0
    0.5360    2.4320   -1.8790 H   0  0  0  0  0  0  0  0  0  0  0  0
   -0.2090    0.9090   -2.3050 H   0  0  0  0  0  0  0  0  0  0  0  0
   -2.3440   -1.5830   -1.9720 O   0  0  0  0  0  0  0  0  0  0  0  0
   -0.9470    1.8120   -0.4690 C   0  0  0  0  0  0  0  0  0  0  0  0
   -3.0020   -0.7080    0.7500 C   0  0  0  0  0  0  0  0  0  0  0  0
   -3.8040   -1.2270    0.2110 H   0  0  0  0  0  0  0  0  0  0  0  0
   -3.1720   -0.8970    1.8170 H   0  0  0  0  0  0  0  0  0  0  0  0
   -2.1830    1.2920   -0.6560 C   0  0  0  0  0  0  0  0  0  0  0  0
   -2.4320    0.8710   -1.6300 H   0  0  0  0  0  0  0  0  0  0  0  0
   -3.1140    0.8390    0.4610 C   0  0  0  0  0  0  0  0  0  0  0  0
   -2.8990    1.3720    1.3930 H   0  0  0  0  0  0  0  0  0  0  0  0
   -4.1500    1.0890    0.2030 H   0  0  0  0  0  0  0  0  0  0  0  0
    3.7480   -1.6900    0.6280 C   0  0  0  0  0  0  0  0  0  0  0  0
    3.2360   -2.0710    1.5180 H   0  0  0  0  0  0  0  0  0  0  0  0
    4.7510   -1.3690    0.9280 H   0  0  0  0  0  0  0  0  0  0  0  0
    3.8550   -2.5090   -0.0890 H   0  0  0  0  0  0  0  0  0  0  0  0
   -0.5140    2.5620    0.7650 C   0  0  0  0  0  0  0  0  0  0  0  0
    0.0160    3.4740    0.4720 H   0  0  0  0  0  0  0  0  0  0  0  0
    0.1560    1.9660    1.3900 H   0  0  0  0  0  0  0  0  0  0  0  0
   -1.3610    2.8810    1.3790 H   0  0  0  0  0  0  0  0  0  0  0  0
   -0.2640   -2.4900    1.6500 H   0  0  0  0  0  0  0  0  0  0  0  0
    1.2480   -2.6930   -0.1920 H   0  0  0  0  0  0  0  0  0  0  0  0
  1  2  1  0  0  0  0
  1  3  1  0  0  0  0
  1  6  1  0  0  0  0
  1 18  1  0  0  0  0
  2  3  1  0  0  0  0
  2  4  1  0  0  0  0
  2 34  1  0  0  0  0
  4  5  1  0  0  0  0
  4  8  1  0  0  0  0
  4 35  1  0  0  0  0
  5  7  2  0  0  0  0
  5 10  1  0  0  0  0
  6  8  1  0  0  0  0
  6 16  2  0  0  0  0
  7  9  1  0  0  0  0
  7 13  1  0  0  0  0
  9 11  1  0  0  0  0
 10 11  2  0  0  0  0
 10 26  1  0  0  0  0
 11 12  1  0  0  0  0
 13 14  1  0  0  0  0
 13 15  1  0  0  0  0
 13 17  1  0  0  0  0
 17 21  2  0  0  0  0
 17 30  1  0  0  0  0
 18 19  1  0  0  0  0
 18 20  1  0  0  0  0
 18 23  1  0  0  0  0
 21 22  1  0  0  0  0
 21 23  1  0  0  0  0
 23 24  1  0  0  0  0
 23 25  1  0  0  0  0
 26 27  1  0  0  0  0
 26 28  1  0  0  0  0
 26 29  1  0  0  0  0
 30 31  1  0  0  0  0
 30 32  1  0  0  0  0
 30 33  1  0  0  0  0
M  END
>  <IDNUMBER>
AK-693/21124002

>  <NAME>
Linderane

>  <ADD_INFO>
http://www.specs.net/enter.php?specsid=AK-693/21124002

>  <H_ACCEPTORS>
3

>  <H_DONORS>
0

>  <ROTATABLE_BONDS>
0

>  <LOGP>
2.8299999

>  <LOGS>
-3.52

>  <TPSA>
51.970001

>  <PRICE>
N07

$$$$
AK-693/21124006
  MOE2011           3D

 79 83  0  0  1  0  0  0  0  0999 V2000
   -1.1210    0.4620    0.9010 C   0  0  1  0  0  0  0  0  0  0  0  0
   -1.6360   -0.1430   -0.4130 C   0  0  0  0  0  0  0  0  0  0  0  0
    0.5190    0.5040    1.0410 C   0  0  1  0  0  0  0  0  0  0  0  0
   -3.1490   -0.3290   -0.6530 C   0  0  1  0  0  0  0  0  0  0  0  0
    2.7760   -0.8630    0.4130 C   0  0  2  0  0  0  0  0  0  0  0  0
   -3.7770   -1.1180    0.5360 C   0  0  1  0  0  0  0  0  0  0  0  0
    1.1670   -0.8000    0.4000 C   0  0  3  0  0  0  0  0  0  0  0  0
    3.3290    0.4240   -0.2970 C   0  0  3  0  0  0  0  0  0  0  0  0
   -0.8090   -0.7550   -1.2720 C   0  0  0  0  0  0  0  0  0  0  0  0
   -1.2160   -1.2230   -2.1670 H   0  0  0  0  0  0  0  0  0  0  0  0
    4.8940    0.4650   -0.5210 C   0  0  0  0  0  0  0  0  0  0  0  0
   -1.6300    1.9470    1.0990 C   0  0  0  0  0  0  0  0  0  0  0  0
   -3.4890   -2.6580    0.3960 C   0  0  0  0  0  0  0  0  0  0  0  0
    1.1810    1.7190    0.3170 C   0  0  0  0  0  0  0  0  0  0  0  0
    0.8250    1.7810   -0.7190 H   0  0  0  0  0  0  0  0  0  0  0  0
    0.8830    2.6560    0.8040 H   0  0  0  0  0  0  0  0  0  0  0  0
   -3.9600    0.9370   -1.0390 C   0  0  2  0  0  0  0  0  0  0  0  0
   -1.7550   -0.4530    1.9950 C   0  0  0  0  0  0  0  0  0  0  0  0
   -1.3090   -1.4540    1.9480 H   0  0  0  0  0  0  0  0  0  0  0  0
   -1.5460   -0.0830    3.0050 H   0  0  0  0  0  0  0  0  0  0  0  0
    0.6400   -0.9790   -1.0590 C   0  0  0  0  0  0  0  0  0  0  0  0
    1.1620   -0.3450   -1.7780 H   0  0  0  0  0  0  0  0  0  0  0  0
    0.8140   -2.0090   -1.3810 H   0  0  0  0  0  0  0  0  0  0  0  0
   -3.2820   -0.5820    1.8940 C   0  0  0  0  0  0  0  0  0  0  0  0
   -3.7340    0.3990    2.0820 H   0  0  0  0  0  0  0  0  0  0  0  0
   -3.6330   -1.2160    2.7180 H   0  0  0  0  0  0  0  0  0  0  0  0
    3.2960   -2.1560   -0.3160 C   0  0  0  0  0  0  0  0  0  0  0  0
    3.7410   -2.8510    0.4100 H   0  0  0  0  0  0  0  0  0  0  0  0
    2.4930   -2.7530   -0.7490 H   0  0  0  0  0  0  0  0  0  0  0  0
    2.7230    1.7130    0.2950 C   0  0  0  0  0  0  0  0  0  0  0  0
    3.1100    1.8980    1.3010 H   0  0  0  0  0  0  0  0  0  0  0  0
    3.0370    2.5780   -0.3000 H   0  0  0  0  0  0  0  0  0  0  0  0
   -5.3280   -1.0540    0.5420 C   0  0  0  0  0  0  0  0  0  0  0  0
   -5.7650   -1.9870    0.9200 H   0  0  0  0  0  0  0  0  0  0  0  0
   -5.6780   -0.2720    1.2280 H   0  0  0  0  0  0  0  0  0  0  0  0
    5.4400   -0.9480   -0.9180 C   0  0  2  0  0  0  0  0  0  0  0  0
   -2.0440    2.2550    2.2570 O   0  0  0  0  0  0  0  0  0  0  0  0
   -3.5360   -3.1300   -0.7780 O   0  0  0  0  0  0  0  0  0  0  0  0
   -5.4440    0.5950   -1.3810 C   0  0  1  0  0  0  0  0  0  0  0  0
    4.3380   -1.8890   -1.4030 C   0  0  0  0  0  0  0  0  0  0  0  0
    3.8520   -1.4790   -2.2970 H   0  0  0  0  0  0  0  0  0  0  0  0
    4.7760   -2.8510   -1.6970 H   0  0  0  0  0  0  0  0  0  0  0  0
   -5.9100   -0.7610   -0.8330 C   0  0  0  0  0  0  0  0  0  0  0  0
   -7.0050   -0.8000   -0.7870 H   0  0  0  0  0  0  0  0  0  0  0  0
   -5.6130   -1.5530   -1.5310 H   0  0  0  0  0  0  0  0  0  0  0  0
    0.8430    0.6480    2.5570 C   0  0  0  0  0  0  0  0  0  0  0  0
    1.8310    1.0540    2.7620 H   0  0  0  0  0  0  0  0  0  0  0  0
    0.7550   -0.3100    3.0800 H   0  0  0  0  0  0  0  0  0  0  0  0
    0.1750    1.3600    3.0490 H   0  0  0  0  0  0  0  0  0  0  0  0
   -1.5480    2.7180    0.0980 O   0  5  0  0  0  0  0  0  0  0  0  0
   -3.2890   -3.2910    1.4740 O   0  5  0  0  0  0  0  0  0  0  0  0
    3.3030   -0.9980    1.8650 C   0  0  0  0  0  0  0  0  0  0  0  0
    2.6670   -1.6670    2.4540 H   0  0  0  0  0  0  0  0  0  0  0  0
    3.3940   -0.0500    2.3890 H   0  0  0  0  0  0  0  0  0  0  0  0
    4.3090   -1.4290    1.9020 H   0  0  0  0  0  0  0  0  0  0  0  0
    5.6750    1.0610    0.6670 C   0  0  0  0  0  0  0  0  0  0  0  0
    5.3900    2.1010    0.8590 H   0  0  0  0  0  0  0  0  0  0  0  0
    6.7520    1.0630    0.4620 H   0  0  0  0  0  0  0  0  0  0  0  0
    5.5240    0.5030    1.5930 H   0  0  0  0  0  0  0  0  0  0  0  0
    5.1730    1.4050   -1.7320 C   0  0  0  0  0  0  0  0  0  0  0  0
    4.8400    2.4300   -1.5410 H   0  0  0  0  0  0  0  0  0  0  0  0
    4.6700    1.0500   -2.6380 H   0  0  0  0  0  0  0  0  0  0  0  0
    6.2470    1.4550   -1.9510 H   0  0  0  0  0  0  0  0  0  0  0  0
    6.1440   -1.5710    0.1580 O   0  0  0  0  0  0  0  0  0  0  0  0
    6.4950   -2.4170   -0.1690 H   0  0  0  0  0  0  0  0  0  0  0  0
   -3.3490    1.6570   -2.2560 C   0  0  0  0  0  0  0  0  0  0  0  0
   -3.8990    2.5770   -2.4790 H   0  0  0  0  0  0  0  0  0  0  0  0
   -3.3840    1.0200   -3.1470 H   0  0  0  0  0  0  0  0  0  0  0  0
   -2.3040    1.9320   -2.1020 H   0  0  0  0  0  0  0  0  0  0  0  0
   -6.3710    1.7230   -0.9100 C   0  0  0  0  0  0  0  0  0  0  0  0
   -7.4070    1.5240   -1.2060 H   0  0  0  0  0  0  0  0  0  0  0  0
   -6.0800    2.6810   -1.3540 H   0  0  0  0  0  0  0  0  0  0  0  0
   -6.3460    1.8340    0.1790 H   0  0  0  0  0  0  0  0  0  0  0  0
   -3.2440   -0.9570   -1.5510 H   0  0  0  0  0  0  0  0  0  0  0  0
    0.8080   -1.6640    0.9770 H   0  0  0  0  0  0  0  0  0  0  0  0
    2.9300    0.3970   -1.3180 H   0  0  0  0  0  0  0  0  0  0  0  0
   -3.9510    1.6290   -0.1900 H   0  0  0  0  0  0  0  0  0  0  0  0
    6.1790   -0.8450   -1.7220 H   0  0  0  0  0  0  0  0  0  0  0  0
   -5.5630    0.5370   -2.4720 H   0  0  0  0  0  0  0  0  0  0  0  0
  1  2  1  0  0  0  0
  1  3  1  0  0  0  0
  1 12  1  0  0  0  0
  1 18  1  0  0  0  0
  2  4  1  0  0  0  0
  2  9  2  0  0  0  0
  3  7  1  0  0  0  0
  3 14  1  0  0  0  0
  3 46  1  0  0  0  0
  4  6  1  0  0  0  0
  4 17  1  0  0  0  0
  4 74  1  0  0  0  0
  5  7  1  0  0  0  0
  5  8  1  0  0  0  0
  5 27  1  0  0  0  0
  5 52  1  0  0  0  0
  6 13  1  0  0  0  0
  6 24  1  0  0  0  0
  6 33  1  0  0  0  0
  7 21  1  0  0  0  0
  7 75  1  0  0  0  0
  8 11  1  0  0  0  0
  8 30  1  0  0  0  0
  8 76  1  0  0  0  0
  9 10  1  0  0  0  0
  9 21  1  0  0  0  0
 11 36  1  0  0  0  0
 11 56  1  0  0  0  0
 11 60  1  0  0  0  0
 12 37  2  0  0  0  0
 12 50  1  0  0  0  0
 13 38  2  0  0  0  0
 13 51  1  0  0  0  0
 14 15  1  0  0  0  0
 14 16  1  0  0  0  0
 14 30  1  0  0  0  0
 17 39  1  0  0  0  0
 17 66  1  0  0  0  0
 17 77  1  0  0  0  0
 18 19  1  0  0  0  0
 18 20  1  0  0  0  0
 18 24  1  0  0  0  0
 21 22  1  0  0  0  0
 21 23  1  0  0  0  0
 24 25  1  0  0  0  0
 24 26  1  0  0  0  0
 27 28  1  0  0  0  0
 27 29  1  0  0  0  0
 27 40  1  0  0  0  0
 30 31  1  0  0  0  0
 30 32  1  0  0  0  0
 33 34  1  0  0  0  0
 33 35  1  0  0  0  0
 33 43  1  0  0  0  0
 36 40  1  0  0  0  0
 36 64  1  0  0  0  0
 36 78  1  0  0  0  0
 39 43  1  0  0  0  0
 39 70  1  0  0  0  0
 39 79  1  0  0  0  0
 40 41  1  0  0  0  0
 40 42  1  0  0  0  0
 43 44  1  0  0  0  0
 43 45  1  0  0  0  0
 46 47  1  0  0  0  0
 46 48  1  0  0  0  0
 46 49  1  0  0  0  0
 52 53  1  0  0  0  0
 52 54  1  0  0  0  0
 52 55  1  0  0  0  0
 56 57  1  0  0  0  0
 56 58  1  0  0  0  0
 56 59  1  0  0  0  0
 60 61  1  0  0  0  0
 60 62  1  0  0  0  0
 60 63  1  0  0  0  0
 64 65  1  0  0  0  0
 66 67  1  0  0  0  0
 66 68  1  0  0  0  0
 66 69  1  0  0  0  0
 70 71  1  0  0  0  0
 70 72  1  0  0  0  0
 70 73  1  0  0  0  0
M  CHG  1  50  -1
M  CHG  1  51  -1
M  END
>  <IDNUMBER>
AK-693/21124006

>  <NAME>
Quinovic acid (Quinovaic acid; Chinovic acid)

>  <ADD_INFO>
http://www.specs.net/enter.php?specsid=AK-693/21124006

>  <H_ACCEPTORS>
5

>  <H_DONORS>
3

>  <ROTATABLE_BONDS>
2

>  <LOGP>
6.0999999

>  <LOGS>
-7.0500002

>  <TPSA>
94.830002

>  <PRICE>
N07

$$$$
AK-693/21124011
  MOE2011           3D

 42 43  0  0  1  0  0  0  0  0999 V2000
    0.3480   -0.3700    0.4830 C   0  0  0  0  0  0  0  0  0  0  0  0
    2.5730    0.5520    0.0150 C   0  0  0  0  0  0  0  0  0  0  0  0
    3.0540   -0.7500   -0.0830 C   0  0  0  0  0  0  0  0  0  0  0  0
    1.2180    0.7340    0.3330 C   0  0  0  0  0  0  0  0  0  0  0  0
    3.5010    1.6470   -0.2450 C   0  0  0  0  0  0  0  0  0  0  0  0
    3.1300    2.6670   -0.2250 H   0  0  0  0  0  0  0  0  0  0  0  0
    4.4120   -1.0060   -0.3700 O   0  0  0  0  0  0  0  0  0  0  0  0
    0.8710   -1.6770    0.3550 C   0  0  0  0  0  0  0  0  0  0  0  0
    2.2290   -1.8610    0.0850 C   0  0  0  0  0  0  0  0  0  0  0  0
    2.6690   -2.8470   -0.0250 H   0  0  0  0  0  0  0  0  0  0  0  0
   -1.1380   -0.1560    0.7430 C   0  0  0  0  0  0  0  0  0  0  0  0
   -1.2850    0.8280    1.1950 H   0  0  0  0  0  0  0  0  0  0  0  0
   -1.4700   -0.8710    1.5080 H   0  0  0  0  0  0  0  0  0  0  0  0
    5.3180    0.0250   -0.5750 C   0  0  0  0  0  0  0  0  0  0  0  0
    4.7840    1.3950   -0.5180 C   0  0  0  0  0  0  0  0  0  0  0  0
    5.4890    2.1940   -0.7160 H   0  0  0  0  0  0  0  0  0  0  0  0
   -1.9770   -0.3050   -0.5450 C   0  0  3  0  0  0  0  0  0  0  0  0
   -3.2790    0.5500   -0.5280 C   0  0  0  0  0  0  0  0  0  0  0  0
    6.5060   -0.1780   -0.8000 O   0  0  0  0  0  0  0  0  0  0  0  0
    0.7050    2.0070    0.4230 O   0  0  0  0  0  0  0  0  0  0  0  0
   -0.0390   -2.6990    0.4740 O   0  0  0  0  0  0  0  0  0  0  0  0
   -3.9420    0.3810    0.7320 O   0  0  0  0  0  0  0  0  0  0  0  0
   -4.8030    0.8290    0.6800 H   0  0  0  0  0  0  0  0  0  0  0  0
   -2.3210   -1.6910   -0.7170 O   0  0  0  0  0  0  0  0  0  0  0  0
   -1.5480   -2.2180   -0.4300 H   0  0  0  0  0  0  0  0  0  0  0  0
   -2.9610    2.0430   -0.6870 C   0  0  0  0  0  0  0  0  0  0  0  0
   -2.4200    2.2400   -1.6180 H   0  0  0  0  0  0  0  0  0  0  0  0
   -2.3660    2.4240    0.1490 H   0  0  0  0  0  0  0  0  0  0  0  0
   -3.8820    2.6380   -0.6920 H   0  0  0  0  0  0  0  0  0  0  0  0
   -4.2480    0.1190   -1.6380 C   0  0  0  0  0  0  0  0  0  0  0  0
   -3.7760    0.1710   -2.6240 H   0  0  0  0  0  0  0  0  0  0  0  0
   -5.1390    0.7580   -1.6490 H   0  0  0  0  0  0  0  0  0  0  0  0
   -4.6140   -0.9010   -1.4740 H   0  0  0  0  0  0  0  0  0  0  0  0
    0.8650    2.5130    1.7530 C   0  0  0  0  0  0  0  0  0  0  0  0
    0.3190    3.4590    1.8150 H   0  0  0  0  0  0  0  0  0  0  0  0
    1.9170    2.7140    1.9750 H   0  0  0  0  0  0  0  0  0  0  0  0
    0.4480    1.8310    2.5020 H   0  0  0  0  0  0  0  0  0  0  0  0
    0.4800   -4.0220    0.5700 C   0  0  0  0  0  0  0  0  0  0  0  0
   -0.3600   -4.6940    0.7710 H   0  0  0  0  0  0  0  0  0  0  0  0
    1.1870   -4.1140    1.4010 H   0  0  0  0  0  0  0  0  0  0  0  0
    0.9340   -4.3330   -0.3770 H   0  0  0  0  0  0  0  0  0  0  0  0
   -1.3880   -0.0240   -1.4270 H   0  0  0  0  0  0  0  0  0  0  0  0
  1  4  1  0  0  0  0
  1  8  2  0  0  0  0
  1 11  1  0  0  0  0
  2  3  1  0  0  0  0
  2  4  2  0  0  0  0
  2  5  1  0  0  0  0
  3  7  1  0  0  0  0
  3  9  2  0  0  0  0
  4 20  1  0  0  0  0
  5  6  1  0  0  0  0
  5 15  2  0  0  0  0
  7 14  1  0  0  0  0
  8  9  1  0  0  0  0
  8 21  1  0  0  0  0
  9 10  1  0  0  0  0
 11 12  1  0  0  0  0
 11 13  1  0  0  0  0
 11 17  1  0  0  0  0
 14 15  1  0  0  0  0
 14 19  2  0  0  0  0
 15 16  1  0  0  0  0
 17 18  1  0  0  0  0
 17 24  1  0  0  0  0
 17 42  1  0  0  0  0
 18 22  1  0  0  0  0
 18 26  1  0  0  0  0
 18 30  1  0  0  0  0
 20 34  1  0  0  0  0
 21 38  1  0  0  0  0
 22 23  1  0  0  0  0
 24 25  1  0  0  0  0
 26 27  1  0  0  0  0
 26 28  1  0  0  0  0
 26 29  1  0  0  0  0
 30 31  1  0  0  0  0
 30 32  1  0  0  0  0
 30 33  1  0  0  0  0
 34 35  1  0  0  0  0
 34 36  1  0  0  0  0
 34 37  1  0  0  0  0
 38 39  1  0  0  0  0
 38 40  1  0  0  0  0
 38 41  1  0  0  0  0
M  END
>  <IDNUMBER>
AK-693/21124011

>  <NAME>
Toddalolactone

>  <ADD_INFO>
http://www.specs.net/enter.php?specsid=AK-693/21124011

>  <H_ACCEPTORS>
3

>  <H_DONORS>
2

>  <ROTATABLE_BONDS>
5

>  <LOGP>
1.48

>  <LOGS>
-2.71

>  <TPSA>
85.220001

>  <PRICE>
N07

$$$$
AK-693/21124016
  MOE2011           3D

 31 33  0  0  0  0  0  0  0  0999 V2000
   -0.1140    0.7390    0.2220 C   0  0  0  0  0  0  0  0  0  0  0  0
    1.0800    1.4680    0.1000 C   0  0  0  0  0  0  0  0  0  0  0  0
    2.3080    0.8030    0.0830 C   0  0  0  0  0  0  0  0  0  0  0  0
   -0.0960   -0.6510    0.3140 C   0  0  0  0  0  0  0  0  0  0  0  0
   -1.4070    1.4330    0.2870 C   0  0  0  0  0  0  0  0  0  0  0  0
    2.3060   -0.5880    0.1960 C   0  0  0  0  0  0  0  0  0  0  0  0
    3.5890    1.4850   -0.0390 C   0  0  0  0  0  0  0  0  0  0  0  0
    3.5980    2.5670   -0.1250 H   0  0  0  0  0  0  0  0  0  0  0  0
   -1.2180   -1.4240    0.4190 O   0  0  0  0  0  0  0  0  0  0  0  0
    3.5120   -1.3190    0.1900 O   0  0  0  0  0  0  0  0  0  0  0  0
    1.1240   -1.3210    0.3160 C   0  0  0  0  0  0  0  0  0  0  0  0
    1.1560   -2.4040    0.3980 H   0  0  0  0  0  0  0  0  0  0  0  0
    4.7430   -0.6860    0.0700 C   0  0  0  0  0  0  0  0  0  0  0  0
   -2.6210    0.5950    0.5620 C   0  0  0  0  0  0  0  0  0  0  0  0
   -2.7380    0.5620    1.6520 H   0  0  0  0  0  0  0  0  0  0  0  0
   -3.5000    1.0860    0.1300 H   0  0  0  0  0  0  0  0  0  0  0  0
   -2.4470   -0.8130   -0.0170 C   0  0  0  0  0  0  0  0  0  0  0  0
    4.7260    0.7830   -0.0450 C   0  0  0  0  0  0  0  0  0  0  0  0
    5.6910    1.2670   -0.1350 H   0  0  0  0  0  0  0  0  0  0  0  0
   -1.4270    2.6590    0.1810 O   0  0  0  0  0  0  0  0  0  0  0  0
    5.8000   -1.3060    0.0580 O   0  0  0  0  0  0  0  0  0  0  0  0
    1.0570    2.8400    0.0040 O   0  0  0  0  0  0  0  0  0  0  0  0
    0.1080    3.1240    0.0420 H   0  0  0  0  0  0  0  0  0  0  0  0
   -3.5690   -1.7090    0.5270 C   0  0  0  0  0  0  0  0  0  0  0  0
   -4.5590   -1.3360    0.2440 H   0  0  0  0  0  0  0  0  0  0  0  0
   -3.5220   -1.7740    1.6200 H   0  0  0  0  0  0  0  0  0  0  0  0
   -3.4660   -2.7350    0.1540 H   0  0  0  0  0  0  0  0  0  0  0  0
   -2.5190   -0.8280   -1.5530 C   0  0  0  0  0  0  0  0  0  0  0  0
   -3.4830   -0.4510   -1.9120 H   0  0  0  0  0  0  0  0  0  0  0  0
   -2.3820   -1.8460   -1.9360 H   0  0  0  0  0  0  0  0  0  0  0  0
   -1.7290   -0.2220   -2.0090 H   0  0  0  0  0  0  0  0  0  0  0  0
  1  2  2  0  0  0  0
  1  4  1  0  0  0  0
  1  5  1  0  0  0  0
  2  3  1  0  0  0  0
  2 22  1  0  0  0  0
  3  6  2  0  0  0  0
  3  7  1  0  0  0  0
  4  9  1  0  0  0  0
  4 11  2  0  0  0  0
  5 14  1  0  0  0  0
  5 20  2  0  0  0  0
  6 10  1  0  0  0  0
  6 11  1  0  0  0  0
  7  8  1  0  0  0  0
  7 18  2  0  0  0  0
  9 17  1  0  0  0  0
 10 13  1  0  0  0  0
 11 12  1  0  0  0  0
 13 18  1  0  0  0  0
 13 21  2  0  0  0  0
 14 15  1  0  0  0  0
 14 16  1  0  0  0  0
 14 17  1  0  0  0  0
 17 24  1  0  0  0  0
 17 28  1  0  0  0  0
 18 19  1  0  0  0  0
 22 23  1  0  0  0  0
 24 25  1  0  0  0  0
 24 26  1  0  0  0  0
 24 27  1  0  0  0  0
 28 29  1  0  0  0  0
 28 30  1  0  0  0  0
 28 31  1  0  0  0  0
M  END
>  <IDNUMBER>
AK-693/21124016

>  <NAME>
Clausenin

>  <ADD_INFO>
http://www.specs.net/enter.php?specsid=AK-693/21124016

>  <H_ACCEPTORS>
2

>  <H_DONORS>
1

>  <ROTATABLE_BONDS>
0

>  <LOGP>
2.3299999

>  <LOGS>
-2.51

>  <TPSA>
72.830002

>  <PRICE>
N07

$$$$
AK-693/21124018
  MOE2011           3D

 36 38  0  0  1  0  0  0  0  0999 V2000
   -1.4690    0.9470    0.0570 C   0  0  0  0  0  0  0  0  0  0  0  0
   -0.8610   -0.3010    0.1920 C   0  0  0  0  0  0  0  0  0  0  0  0
   -1.6600   -1.4500    0.2130 C   0  0  0  0  0  0  0  0  0  0  0  0
   -2.8620    1.0610   -0.0670 C   0  0  0  0  0  0  0  0  0  0  0  0
    0.4890   -0.4160    0.3880 O   0  0  0  0  0  0  0  0  0  0  0  0
   -0.6250    2.1550    0.1000 C   0  0  0  0  0  0  0  0  0  0  0  0
   -3.6730   -0.0800   -0.0750 C   0  0  0  0  0  0  0  0  0  0  0  0
   -3.0540   -1.3340    0.0720 C   0  0  0  0  0  0  0  0  0  0  0  0
    1.2550    0.6090   -0.2720 C   0  0  3  0  0  0  0  0  0  0  0  0
    0.8530    1.9680    0.2940 C   0  0  0  0  0  0  0  0  0  0  0  0
    1.3720    2.7770   -0.2310 H   0  0  0  0  0  0  0  0  0  0  0  0
    1.0570    2.0390    1.3690 H   0  0  0  0  0  0  0  0  0  0  0  0
   -1.1670    3.2560    0.0210 O   0  0  0  0  0  0  0  0  0  0  0  0
   -1.0660   -2.7910    0.4080 C   0  0  0  0  0  0  0  0  0  0  0  0
   -1.7030   -3.5350    0.9140 H   0  0  0  0  0  0  0  0  0  0  0  0
    2.7250    0.2450   -0.1320 C   0  0  0  0  0  0  0  0  0  0  0  0
   -3.4560    2.2950   -0.1710 O   0  0  0  0  0  0  0  0  0  0  0  0
   -2.7390    2.9770   -0.1240 H   0  0  0  0  0  0  0  0  0  0  0  0
    0.0460   -3.0970   -0.0020 O   0  0  0  0  0  0  0  0  0  0  0  0
   -3.8650   -2.4400    0.0660 O   0  0  0  0  0  0  0  0  0  0  0  0
   -3.4870   -3.1070   -0.5340 H   0  0  0  0  0  0  0  0  0  0  0  0
   -5.1690    0.0270   -0.1820 C   0  0  0  0  0  0  0  0  0  0  0  0
   -5.5740   -0.7710   -0.8140 H   0  0  0  0  0  0  0  0  0  0  0  0
   -5.4810    0.9700   -0.6420 H   0  0  0  0  0  0  0  0  0  0  0  0
   -5.6200   -0.0410    0.8130 H   0  0  0  0  0  0  0  0  0  0  0  0
    3.1310   -1.0600   -0.4700 C   0  0  0  0  0  0  0  0  0  0  0  0
    2.3940   -1.7950   -0.7940 H   0  0  0  0  0  0  0  0  0  0  0  0
    3.7130    1.1530    0.2800 C   0  0  0  0  0  0  0  0  0  0  0  0
    3.4670    2.1780    0.5450 H   0  0  0  0  0  0  0  0  0  0  0  0
    4.4710   -1.4460   -0.3880 C   0  0  0  0  0  0  0  0  0  0  0  0
    4.7580   -2.4610   -0.6480 H   0  0  0  0  0  0  0  0  0  0  0  0
    5.0550    0.7670    0.3600 C   0  0  0  0  0  0  0  0  0  0  0  0
    5.8060    1.4830    0.6840 H   0  0  0  0  0  0  0  0  0  0  0  0
    5.4330   -0.5310    0.0270 C   0  0  0  0  0  0  0  0  0  0  0  0
    6.4760   -0.8280    0.0920 H   0  0  0  0  0  0  0  0  0  0  0  0
    1.0290    0.5770   -1.3490 H   0  0  0  0  0  0  0  0  0  0  0  0
  1  2  2  0  0  0  0
  1  4  1  0  0  0  0
  1  6  1  0  0  0  0
  2  3  1  0  0  0  0
  2  5  1  0  0  0  0
  3  8  2  0  0  0  0
  3 14  1  0  0  0  0
  4  7  2  0  0  0  0
  4 17  1  0  0  0  0
  5  9  1  0  0  0  0
  6 10  1  0  0  0  0
  6 13  2  0  0  0  0
  7  8  1  0  0  0  0
  7 22  1  0  0  0  0
  8 20  1  0  0  0  0
  9 10  1  0  0  0  0
  9 16  1  0  0  0  0
  9 36  1  0  0  0  0
 10 11  1  0  0  0  0
 10 12  1  0  0  0  0
 14 15  1  0  0  0  0
 14 19  2  0  0  0  0
 16 26  2  0  0  0  0
 16 28  1  0  0  0  0
 17 18  1  0  0  0  0
 20 21  1  0  0  0  0
 22 23  1  0  0  0  0
 22 24  1  0  0  0  0
 22 25  1  0  0  0  0
 26 27  1  0  0  0  0
 26 30  1  0  0  0  0
 28 29  1  0  0  0  0
 28 32  2  0  0  0  0
 30 31  1  0  0  0  0
 30 34  2  0  0  0  0
 32 33  1  0  0  0  0
 32 34  1  0  0  0  0
 34 35  1  0  0  0  0
M  END
>  <IDNUMBER>
AK-693/21124018

>  <NAME>
Lawinal

>  <ADD_INFO>
http://www.specs.net/enter.php?specsid=AK-693/21124018

>  <H_ACCEPTORS>
2

>  <H_DONORS>
2

>  <ROTATABLE_BONDS>
2

>  <LOGP>
4.1300001

>  <LOGS>
-4.3299999

>  <TPSA>
83.830002

>  <PRICE>
N07

$$$$
AK-693/21124020
  MOE2011           3D

 41 45  0  0  1  0  0  0  0  0999 V2000
    1.0050   -0.0160    0.0070 C   0  0  0  0  0  0  0  0  0  0  0  0
   -0.3980   -0.5060   -0.0560 C   0  0  0  0  0  0  0  0  0  0  0  0
   -1.4500    0.4360   -0.2210 C   0  0  0  0  0  0  0  0  0  0  0  0
    1.2400    1.3530    0.3030 C   0  0  0  0  0  0  0  0  0  0  0  0
   -0.7940   -1.8320    0.1010 C   0  0  0  0  0  0  0  0  0  0  0  0
   -1.0690    1.8870   -0.4520 C   0  0  2  0  0  0  0  0  0  0  0  0
   -2.8130    0.0470   -0.1750 C   0  0  0  0  0  0  0  0  0  0  0  0
    2.1240   -0.8440   -0.2160 C   0  0  0  0  0  0  0  0  0  0  0  0
    1.9700   -1.8810   -0.4900 H   0  0  0  0  0  0  0  0  0  0  0  0
   -2.1220   -2.2100    0.0940 C   0  0  0  0  0  0  0  0  0  0  0  0
    0.0650    2.2880    0.5020 C   0  0  0  0  0  0  0  0  0  0  0  0
    0.3700    3.3210    0.2940 H   0  0  0  0  0  0  0  0  0  0  0  0
   -0.2570    2.2360    1.5500 H   0  0  0  0  0  0  0  0  0  0  0  0
   -3.1490   -1.3020   -0.0430 C   0  0  0  0  0  0  0  0  0  0  0  0
   -4.1810   -1.6370   -0.0190 H   0  0  0  0  0  0  0  0  0  0  0  0
    2.5440    1.8470    0.4310 C   0  0  0  0  0  0  0  0  0  0  0  0
    2.7320    2.8880    0.6800 H   0  0  0  0  0  0  0  0  0  0  0  0
    3.4270   -0.3500   -0.1010 C   0  0  0  0  0  0  0  0  0  0  0  0
   -2.2060    2.8760   -0.3580 N   0  3  0  0  0  0  0  0  0  0  0  0
   -1.8840    3.7650    0.0470 H   0  0  0  0  0  0  0  0  0  0  0  0
   -2.5010    3.1110   -1.3160 H   0  0  0  0  0  0  0  0  0  0  0  0
    3.6160    0.9930    0.2280 C   0  0  0  0  0  0  0  0  0  0  0  0
    0.0170   -2.9100    0.3100 O   0  0  0  0  0  0  0  0  0  0  0  0
   -2.2970   -3.5480    0.2690 O   0  0  0  0  0  0  0  0  0  0  0  0
   -0.9350   -3.9860    0.4040 C   0  0  0  0  0  0  0  0  0  0  0  0
   -0.7190   -4.7160   -0.3860 H   0  0  0  0  0  0  0  0  0  0  0  0
   -0.8160   -4.4760    1.3770 H   0  0  0  0  0  0  0  0  0  0  0  0
   -3.4080    2.3930    0.3870 C   0  0  0  0  0  0  0  0  0  0  0  0
   -3.1150    2.2730    1.4360 H   0  0  0  0  0  0  0  0  0  0  0  0
   -4.1640    3.1800    0.3110 H   0  0  0  0  0  0  0  0  0  0  0  0
    4.8830    1.4940    0.3500 O   0  0  0  0  0  0  0  0  0  0  0  0
    5.4720    0.7310    0.1770 H   0  0  0  0  0  0  0  0  0  0  0  0
    4.5850   -1.0600   -0.2830 O   0  0  0  0  0  0  0  0  0  0  0  0
   -3.8940    1.0930   -0.2440 C   0  0  0  0  0  0  0  0  0  0  0  0
   -4.7850    0.7530    0.2960 H   0  0  0  0  0  0  0  0  0  0  0  0
   -4.1750    1.2490   -1.2920 H   0  0  0  0  0  0  0  0  0  0  0  0
    4.4550   -2.4520   -0.5500 C   0  0  0  0  0  0  0  0  0  0  0  0
    5.4620   -2.8720   -0.6320 H   0  0  0  0  0  0  0  0  0  0  0  0
    3.9430   -2.6230   -1.5030 H   0  0  0  0  0  0  0  0  0  0  0  0
    3.9440   -2.9650    0.2720 H   0  0  0  0  0  0  0  0  0  0  0  0
   -0.7190    1.9760   -1.4890 H   0  0  0  0  0  0  0  0  0  0  0  0
  1  2  1  0  0  0  0
  1  4  2  0  0  0  0
  1  8  1  0  0  0  0
  2  3  2  0  0  0  0
  2  5  1  0  0  0  0
  3  6  1  0  0  0  0
  3  7  1  0  0  0  0
  4 11  1  0  0  0  0
  4 16  1  0  0  0  0
  5 10  2  0  0  0  0
  5 23  1  0  0  0  0
  6 11  1  0  0  0  0
  6 19  1  0  0  0  0
  6 41  1  0  0  0  0
  7 14  2  0  0  0  0
  7 34  1  0  0  0  0
  8  9  1  0  0  0  0
  8 18  2  0  0  0  0
 10 14  1  0  0  0  0
 10 24  1  0  0  0  0
 11 12  1  0  0  0  0
 11 13  1  0  0  0  0
 14 15  1  0  0  0  0
 16 17  1  0  0  0  0
 16 22  2  0  0  0  0
 18 22  1  0  0  0  0
 18 33  1  0  0  0  0
 19 20  1  0  0  0  0
 19 21  1  0  0  0  0
 19 28  1  0  0  0  0
 22 31  1  0  0  0  0
 23 25  1  0  0  0  0
 24 25  1  0  0  0  0
 25 26  1  0  0  0  0
 25 27  1  0  0  0  0
 28 29  1  0  0  0  0
 28 30  1  0  0  0  0
 28 34  1  0  0  0  0
 31 32  1  0  0  0  0
 33 37  1  0  0  0  0
 34 35  1  0  0  0  0
 34 36  1  0  0  0  0
 37 38  1  0  0  0  0
 37 39  1  0  0  0  0
 37 40  1  0  0  0  0
M  CHG  1  19   1
M  END
>  <IDNUMBER>
AK-693/21124020

>  <NAME>
Actinodaphnine

>  <ADD_INFO>
http://www.specs.net/enter.php?specsid=AK-693/21124020

>  <H_ACCEPTORS>
1

>  <H_DONORS>
2

>  <ROTATABLE_BONDS>
1

>  <LOGP>
2.9400001

>  <LOGS>
-4.0799999

>  <TPSA>
59.950001

>  <PRICE>
N07

>  <SALTDATA>
HCl

$$$$
AK-693/21124021
  MOE2011           3D

 41 45  0  0  0  0  0  0  0  0999 V2000
   -2.8390   -1.3180    0.0490 C   0  0  0  0  0  0  0  0  0  0  0  0
   -1.9910   -0.2410    0.0680 C   0  0  0  0  0  0  0  0  0  0  0  0
   -2.3080   -2.6610    0.0530 C   0  0  0  0  0  0  0  0  0  0  0  0
   -0.5580   -0.3080    0.0930 C   0  0  0  0  0  0  0  0  0  0  0  0
   -2.6550    0.9350    0.0620 O   0  0  0  0  0  0  0  0  0  0  0  0
   -0.0290   -1.6050    0.0960 C   0  0  0  0  0  0  0  0  0  0  0  0
   -0.8890   -2.7470    0.0750 O   0  0  0  0  0  0  0  0  0  0  0  0
   -3.9840    0.6090    0.0400 C   0  0  0  0  0  0  0  0  0  0  0  0
   -4.1500   -0.7790    0.0310 C   0  0  0  0  0  0  0  0  0  0  0  0
    2.2020   -0.7300    0.1360 C   0  0  0  0  0  0  0  0  0  0  0  0
    0.3010    0.7860    0.1190 C   0  0  0  0  0  0  0  0  0  0  0  0
   -0.1010    1.7970    0.1190 H   0  0  0  0  0  0  0  0  0  0  0  0
    1.3420   -1.8290    0.1170 C   0  0  0  0  0  0  0  0  0  0  0  0
    1.7400   -2.8390    0.1150 H   0  0  0  0  0  0  0  0  0  0  0  0
    3.5370   -1.0290    0.1580 O   0  0  0  0  0  0  0  0  0  0  0  0
    1.6910    0.5790    0.1540 C   0  0  0  0  0  0  0  0  0  0  0  0
   -5.0350    1.5250    0.0280 C   0  0  0  0  0  0  0  0  0  0  0  0
   -4.8440    2.5900    0.0350 H   0  0  0  0  0  0  0  0  0  0  0  0
   -5.4570   -1.2980    0.0090 C   0  0  0  0  0  0  0  0  0  0  0  0
   -5.6310   -2.3700    0.0020 H   0  0  0  0  0  0  0  0  0  0  0  0
    4.4600    0.0550   -0.0500 C   0  0  0  0  0  0  0  0  0  0  0  0
   -3.0090   -3.6650    0.0370 O   0  0  0  0  0  0  0  0  0  0  0  0
    2.6150    1.7620    0.1810 C   0  0  0  0  0  0  0  0  0  0  0  0
    2.6680    2.1970   -0.8240 H   0  0  0  0  0  0  0  0  0  0  0  0
    2.2250    2.5330    0.8560 H   0  0  0  0  0  0  0  0  0  0  0  0
   -6.3180    0.9750    0.0060 C   0  0  0  0  0  0  0  0  0  0  0  0
    3.9970    1.3410    0.6540 C   0  0  0  0  0  0  0  0  0  0  0  0
    3.9470    1.1600    1.7370 H   0  0  0  0  0  0  0  0  0  0  0  0
    4.7110    2.1590    0.4980 H   0  0  0  0  0  0  0  0  0  0  0  0
   -6.5350   -0.4020   -0.0030 C   0  0  0  0  0  0  0  0  0  0  0  0
   -7.5520   -0.7860   -0.0200 H   0  0  0  0  0  0  0  0  0  0  0  0
   -7.4230    1.7810   -0.0080 O   0  0  0  0  0  0  0  0  0  0  0  0
   -7.1320    2.7080   -0.0010 H   0  0  0  0  0  0  0  0  0  0  0  0
    4.6730    0.2460   -1.5590 C   0  0  0  0  0  0  0  0  0  0  0  0
    5.3920    1.0450   -1.7640 H   0  0  0  0  0  0  0  0  0  0  0  0
    3.7390    0.4810   -2.0790 H   0  0  0  0  0  0  0  0  0  0  0  0
    5.0450   -0.6790   -2.0160 H   0  0  0  0  0  0  0  0  0  0  0  0
    5.7870   -0.3980    0.5750 C   0  0  0  0  0  0  0  0  0  0  0  0
    6.5700    0.3580    0.4550 H   0  0  0  0  0  0  0  0  0  0  0  0
    6.1350   -1.3330    0.1200 H   0  0  0  0  0  0  0  0  0  0  0  0
    5.6640   -0.6050    1.6450 H   0  0  0  0  0  0  0  0  0  0  0  0
  1  2  2  0  0  0  0
  1  3  1  0  0  0  0
  1  9  1  0  0  0  0
  2  4  1  0  0  0  0
  2  5  1  0  0  0  0
  3  7  1  0  0  0  0
  3 22  2  0  0  0  0
  4  6  2  0  0  0  0
  4 11  1  0  0  0  0
  5  8  1  0  0  0  0
  6  7  1  0  0  0  0
  6 13  1  0  0  0  0
  8  9  2  0  0  0  0
  8 17  1  0  0  0  0
  9 19  1  0  0  0  0
 10 13  2  0  0  0  0
 10 15  1  0  0  0  0
 10 16  1  0  0  0  0
 11 12  1  0  0  0  0
 11 16  2  0  0  0  0
 13 14  1  0  0  0  0
 15 21  1  0  0  0  0
 16 23  1  0  0  0  0
 17 18  1  0  0  0  0
 17 26  2  0  0  0  0
 19 20  1  0  0  0  0
 19 30  2  0  0  0  0
 21 27  1  0  0  0  0
 21 34  1  0  0  0  0
 21 38  1  0  0  0  0
 23 24  1  0  0  0  0
 23 25  1  0  0  0  0
 23 27  1  0  0  0  0
 26 30  1  0  0  0  0
 26 32  1  0  0  0  0
 27 28  1  0  0  0  0
 27 29  1  0  0  0  0
 30 31  1  0  0  0  0
 32 33  1  0  0  0  0
 34 35  1  0  0  0  0
 34 36  1  0  0  0  0
 34 37  1  0  0  0  0
 38 39  1  0  0  0  0
 38 40  1  0  0  0  0
 38 41  1  0  0  0  0
M  END
>  <IDNUMBER>
AK-693/21124021

>  <NAME>
Isopsoralidin

>  <ADD_INFO>
http://www.specs.net/enter.php?specsid=AK-693/21124021

>  <H_ACCEPTORS>
1

>  <H_DONORS>
1

>  <ROTATABLE_BONDS>
0

>  <LOGP>
3.9300001

>  <LOGS>
-5.54

>  <TPSA>
68.900002

>  <PRICE>
N07

$$$$
AK-693/21141001
  MOE2011           3D

 57 58  0  0  1  0  0  0  0  0999 V2000
   -4.1630   -0.2810   -0.1050 C   0  0  0  0  0  0  0  0  0  0  0  0
   -1.6050   -0.5350   -0.2280 C   0  0  0  0  0  0  0  0  0  0  0  0
   -2.8350    0.2530   -0.5240 C   0  0  0  0  0  0  0  0  0  0  0  0
   -1.6260   -1.7370    0.3990 C   0  0  0  0  0  0  0  0  0  0  0  0
   -4.1850   -1.4290    0.5720 C   0  0  0  0  0  0  0  0  0  0  0  0
   -5.1110   -1.8450    0.9520 H   0  0  0  0  0  0  0  0  0  0  0  0
   -5.2290    0.5440   -0.4170 N   0  0  0  0  0  0  0  0  0  0  0  0
   -4.9380    1.4770   -0.7150 H   0  0  0  0  0  0  0  0  0  0  0  0
   -2.9880   -2.2360    0.8730 C   0  0  0  0  0  0  0  0  0  0  0  0
   -6.6180    0.3200   -0.3650 C   0  0  0  0  0  0  0  0  0  0  0  0
   -7.2560   -0.8240   -0.8840 C   0  0  0  0  0  0  0  0  0  0  0  0
   -7.4420    1.2860    0.2570 C   0  0  0  0  0  0  0  0  0  0  0  0
   -2.7940    1.3370   -1.1080 O   0  0  0  0  0  0  0  0  0  0  0  0
   -3.1700   -3.2790    1.5030 O   0  0  0  0  0  0  0  0  0  0  0  0
   -0.6560   -2.5090    0.6610 O   0  5  0  0  0  0  0  0  0  0  0  0
   -0.3190    0.0960   -0.7470 C   0  0  0  0  0  0  0  0  0  0  0  0
    0.4900   -0.6390   -0.8010 H   0  0  0  0  0  0  0  0  0  0  0  0
   -0.4830    0.3960   -1.7920 H   0  0  0  0  0  0  0  0  0  0  0  0
   -6.4180   -2.0110   -1.8290 Cl  0  0  0  0  0  0  0  0  0  0  0  0
   -6.7650    2.7480    0.9000 Cl  0  0  0  0  0  0  0  0  0  0  0  0
   -9.4210   -0.0480   -0.1070 C   0  0  0  0  0  0  0  0  0  0  0  0
  -10.4940   -0.1950   -0.0070 H   0  0  0  0  0  0  0  0  0  0  0  0
   -8.6400   -1.0070   -0.7480 C   0  0  0  0  0  0  0  0  0  0  0  0
   -9.1180   -1.8940   -1.1580 H   0  0  0  0  0  0  0  0  0  0  0  0
   -8.8230    1.1050    0.3880 C   0  0  0  0  0  0  0  0  0  0  0  0
   -9.4350    1.8580    0.8790 H   0  0  0  0  0  0  0  0  0  0  0  0
    0.1590    1.3300    0.0390 C   0  0  0  0  0  0  0  0  0  0  0  0
    0.9640    1.8170   -0.5230 H   0  0  0  0  0  0  0  0  0  0  0  0
   -0.6560    2.0620    0.0810 H   0  0  0  0  0  0  0  0  0  0  0  0
    6.8150   -0.9250   -1.3080 C   0  0  0  0  0  0  0  0  0  0  0  0
    6.7940   -1.4590   -0.3520 H   0  0  0  0  0  0  0  0  0  0  0  0
    6.9050   -1.6920   -2.0870 H   0  0  0  0  0  0  0  0  0  0  0  0
    5.5020   -0.1700   -1.5280 C   0  0  0  0  0  0  0  0  0  0  0  0
    4.6790   -0.8950   -1.5300 H   0  0  0  0  0  0  0  0  0  0  0  0
    5.5140    0.2730   -2.5320 H   0  0  0  0  0  0  0  0  0  0  0  0
    2.7140   -0.3300    0.9320 C   0  0  0  0  0  0  0  0  0  0  0  0
    2.1280   -1.2130    1.2100 H   0  0  0  0  0  0  0  0  0  0  0  0
    2.6220   -0.2170   -0.1520 H   0  0  0  0  0  0  0  0  0  0  0  0
    4.1780   -0.6060    1.2930 C   0  0  0  0  0  0  0  0  0  0  0  0
    4.2440   -0.8070    2.3700 H   0  0  0  0  0  0  0  0  0  0  0  0
    4.4890   -1.5330    0.7970 H   0  0  0  0  0  0  0  0  0  0  0  0
    5.1670    0.5120    0.9510 C   0  0  0  0  0  0  0  0  0  0  0  0
    4.9440    1.3930    1.5640 H   0  0  0  0  0  0  0  0  0  0  0  0
    6.1700    0.1910    1.2580 H   0  0  0  0  0  0  0  0  0  0  0  0
    5.2000    0.9420   -0.5190 C   0  0  0  0  0  0  0  0  0  0  0  0
    4.2390    1.3990   -0.7850 H   0  0  0  0  0  0  0  0  0  0  0  0
    5.9430    1.7420   -0.6290 H   0  0  0  0  0  0  0  0  0  0  0  0
    0.6220    1.0580    1.4770 C   0  0  0  0  0  0  0  0  0  0  0  0
    0.3310    1.9240    2.0860 H   0  0  0  0  0  0  0  0  0  0  0  0
    0.1040    0.1990    1.9140 H   0  0  0  0  0  0  0  0  0  0  0  0
    2.1380    0.8970    1.6390 C   0  0  0  0  0  0  0  0  0  0  0  0
    2.6320    1.8060    1.2760 H   0  0  0  0  0  0  0  0  0  0  0  0
    2.3580    0.8280    2.7110 H   0  0  0  0  0  0  0  0  0  0  0  0
    8.0460   -0.0340   -1.3650 C   0  0  0  0  0  0  0  0  0  0  0  0
    8.0650    0.6760   -0.5340 H   0  0  0  0  0  0  0  0  0  0  0  0
    8.0810    0.5280   -2.3030 H   0  0  0  0  0  0  0  0  0  0  0  0
    8.9530   -0.6430   -1.3010 H   0  0  0  0  0  0  0  0  0  0  0  0
  1  3  1  0  0  0  0
  1  5  2  0  0  0  0
  1  7  1  0  0  0  0
  2  3  1  0  0  0  0
  2  4  2  0  0  0  0
  2 16  1  0  0  0  0
  3 13  2  0  0  0  0
  4  9  1  0  0  0  0
  4 15  1  0  0  0  0
  5  6  1  0  0  0  0
  5  9  1  0  0  0  0
  7  8  1  0  0  0  0
  7 10  1  0  0  0  0
  9 14  2  0  0  0  0
 10 11  2  0  0  0  0
 10 12  1  0  0  0  0
 11 19  1  0  0  0  0
 11 23  1  0  0  0  0
 12 20  1  0  0  0  0
 12 25  2  0  0  0  0
 16 17  1  0  0  0  0
 16 18  1  0  0  0  0
 16 27  1  0  0  0  0
 21 22  1  0  0  0  0
 21 23  2  0  0  0  0
 21 25  1  0  0  0  0
 23 24  1  0  0  0  0
 25 26  1  0  0  0  0
 27 28  1  0  0  0  0
 27 29  1  0  0  0  0
 27 48  1  0  0  0  0
 30 31  1  0  0  0  0
 30 32  1  0  0  0  0
 30 33  1  0  0  0  0
 30 54  1  0  0  0  0
 33 34  1  0  0  0  0
 33 35  1  0  0  0  0
 33 45  1  0  0  0  0
 36 37  1  0  0  0  0
 36 38  1  0  0  0  0
 36 39  1  0  0  0  0
 36 51  1  0  0  0  0
 39 40  1  0  0  0  0
 39 41  1  0  0  0  0
 39 42  1  0  0  0  0
 42 43  1  0  0  0  0
 42 44  1  0  0  0  0
 42 45  1  0  0  0  0
 45 46  1  0  0  0  0
 45 47  1  0  0  0  0
 48 49  1  0  0  0  0
 48 50  1  0  0  0  0
 48 51  1  0  0  0  0
 51 52  1  0  0  0  0
 51 53  1  0  0  0  0
 54 55  1  0  0  0  0
 54 56  1  0  0  0  0
 54 57  1  0  0  0  0
M  CHG  1  15  -1
M  END
>  <IDNUMBER>
AK-693/21141001

>  <NAME>
Embelin, derivative of

>  <ADD_INFO>
http://www.specs.net/enter.php?specsid=AK-693/21141001

>  <H_ACCEPTORS>
4

>  <H_DONORS>
2

>  <ROTATABLE_BONDS>
12

>  <LOGP>
7.7199998

>  <LOGS>
-8.9899998

>  <TPSA>
66.400002

>  <PRICE>
N08

$$$$
AK-693/21141006
  MOE2011           3D

 62 63  0  0  1  0  0  0  0  0999 V2000
   -5.8260    3.6200   -0.0700 S   0  0  0  0  0  0  0  0  0  0  0  0
   -1.0160   -3.2600   -0.0240 C   0  0  0  0  0  0  0  0  0  0  0  0
   -3.4550   -2.9500    0.7060 C   0  0  0  0  0  0  0  0  0  0  0  0
   -2.0710   -2.3920    0.5870 C   0  0  0  0  0  0  0  0  0  0  0  0
   -1.1400   -4.6020   -0.1550 C   0  0  0  0  0  0  0  0  0  0  0  0
   -3.5610   -4.2820    0.6430 C   0  0  0  0  0  0  0  0  0  0  0  0
   -4.5140   -4.7770    0.7930 H   0  0  0  0  0  0  0  0  0  0  0  0
   -2.4400   -5.2000    0.3610 C   0  0  0  0  0  0  0  0  0  0  0  0
   -4.5470   -2.1420    0.9980 N   0  0  0  0  0  0  0  0  0  0  0  0
   -5.2980   -2.6150    1.4900 H   0  0  0  0  0  0  0  0  0  0  0  0
   -5.4560    1.9110    0.2040 C   0  0  0  0  0  0  0  0  0  0  0  0
   -6.0900    4.2400    1.2090 O   0  0  0  0  0  0  0  0  0  0  0  0
   -4.8620    4.1620   -1.0020 O   0  0  0  0  0  0  0  0  0  0  0  0
   -7.2980    3.5300   -0.8920 N   0  0  0  0  0  0  0  0  0  0  0  0
   -8.0640    3.9510   -0.3590 H   0  0  0  0  0  0  0  0  0  0  0  0
   -7.2250    3.8770   -1.8510 H   0  0  0  0  0  0  0  0  0  0  0  0
   -1.7940   -1.2600    0.9790 O   0  0  0  0  0  0  0  0  0  0  0  0
   -2.6440   -6.4020    0.5340 O   0  0  0  0  0  0  0  0  0  0  0  0
   -6.0820    1.2340    1.2500 C   0  0  0  0  0  0  0  0  0  0  0  0
   -6.8080    1.7350    1.8850 H   0  0  0  0  0  0  0  0  0  0  0  0
   -4.5050    1.2620   -0.5840 C   0  0  0  0  0  0  0  0  0  0  0  0
   -3.9940    1.7810   -1.3910 H   0  0  0  0  0  0  0  0  0  0  0  0
   -0.3200   -5.4340   -0.6420 O   0  5  0  0  0  0  0  0  0  0  0  0
   -4.8220   -0.7940    0.6980 C   0  0  0  0  0  0  0  0  0  0  0  0
    0.2370   -2.5090   -0.4510 C   0  0  0  0  0  0  0  0  0  0  0  0
    0.5470   -1.8360    0.3560 H   0  0  0  0  0  0  0  0  0  0  0  0
    1.0820   -3.1940   -0.5910 H   0  0  0  0  0  0  0  0  0  0  0  0
   -5.7640   -0.1080    1.4880 C   0  0  0  0  0  0  0  0  0  0  0  0
   -6.2560   -0.6190    2.3130 H   0  0  0  0  0  0  0  0  0  0  0  0
   -4.1950   -0.0820   -0.3340 C   0  0  0  0  0  0  0  0  0  0  0  0
   -3.4610   -0.5690   -0.9700 H   0  0  0  0  0  0  0  0  0  0  0  0
    0.0090   -1.7280   -1.7510 C   0  0  0  0  0  0  0  0  0  0  0  0
   -0.3500   -2.4160   -2.5270 H   0  0  0  0  0  0  0  0  0  0  0  0
   -0.7800   -0.9780   -1.6120 H   0  0  0  0  0  0  0  0  0  0  0  0
    6.3040    1.6020    2.3620 C   0  0  0  0  0  0  0  0  0  0  0  0
    5.4920    2.2940    2.6100 H   0  0  0  0  0  0  0  0  0  0  0  0
    6.6950    1.2320    3.3180 H   0  0  0  0  0  0  0  0  0  0  0  0
    5.7660    0.4070    1.5710 C   0  0  0  0  0  0  0  0  0  0  0  0
    4.9910   -0.0860    2.1710 H   0  0  0  0  0  0  0  0  0  0  0  0
    6.5730   -0.3260    1.4490 H   0  0  0  0  0  0  0  0  0  0  0  0
    2.9450    0.8340   -2.0070 C   0  0  0  0  0  0  0  0  0  0  0  0
    3.7700    0.1450   -2.2230 H   0  0  0  0  0  0  0  0  0  0  0  0
    2.6130    1.2260   -2.9760 H   0  0  0  0  0  0  0  0  0  0  0  0
    3.4470    2.0150   -1.1710 C   0  0  0  0  0  0  0  0  0  0  0  0
    4.2310    2.5320   -1.7400 H   0  0  0  0  0  0  0  0  0  0  0  0
    2.6290    2.7370   -1.0510 H   0  0  0  0  0  0  0  0  0  0  0  0
    3.9940    1.6730    0.2200 C   0  0  0  0  0  0  0  0  0  0  0  0
    4.2860    2.6160    0.6960 H   0  0  0  0  0  0  0  0  0  0  0  0
    3.2000    1.2460    0.8440 H   0  0  0  0  0  0  0  0  0  0  0  0
    5.1940    0.7230    0.1840 C   0  0  0  0  0  0  0  0  0  0  0  0
    4.8920   -0.2280   -0.2680 H   0  0  0  0  0  0  0  0  0  0  0  0
    5.9780    1.1370   -0.4600 H   0  0  0  0  0  0  0  0  0  0  0  0
    1.7870    0.0730   -1.3560 C   0  0  0  0  0  0  0  0  0  0  0  0
    0.9730    0.7710   -1.1270 H   0  0  0  0  0  0  0  0  0  0  0  0
    2.1210   -0.3660   -0.4100 H   0  0  0  0  0  0  0  0  0  0  0  0
    1.2700   -1.0360   -2.2780 C   0  0  0  0  0  0  0  0  0  0  0  0
    2.0590   -1.7810   -2.4390 H   0  0  0  0  0  0  0  0  0  0  0  0
    1.0360   -0.6070   -3.2600 H   0  0  0  0  0  0  0  0  0  0  0  0
    7.4140    2.3550    1.6460 C   0  0  0  0  0  0  0  0  0  0  0  0
    7.0440    2.8530    0.7450 H   0  0  0  0  0  0  0  0  0  0  0  0
    8.2270    1.6800    1.3610 H   0  0  0  0  0  0  0  0  0  0  0  0
    7.8290    3.1260    2.3030 H   0  0  0  0  0  0  0  0  0  0  0  0
  1 11  1  0  0  0  0
  1 12  2  0  0  0  0
  1 13  2  0  0  0  0
  1 14  1  0  0  0  0
  2  4  1  0  0  0  0
  2  5  2  0  0  0  0
  2 25  1  0  0  0  0
  3  4  1  0  0  0  0
  3  6  2  0  0  0  0
  3  9  1  0  0  0  0
  4 17  2  0  0  0  0
  5  8  1  0  0  0  0
  5 23  1  0  0  0  0
  6  7  1  0  0  0  0
  6  8  1  0  0  0  0
  8 18  2  0  0  0  0
  9 10  1  0  0  0  0
  9 24  1  0  0  0  0
 11 19  2  0  0  0  0
 11 21  1  0  0  0  0
 14 15  1  0  0  0  0
 14 16  1  0  0  0  0
 19 20  1  0  0  0  0
 19 28  1  0  0  0  0
 21 22  1  0  0  0  0
 21 30  2  0  0  0  0
 24 28  2  0  0  0  0
 24 30  1  0  0  0  0
 25 26  1  0  0  0  0
 25 27  1  0  0  0  0
 25 32  1  0  0  0  0
 28 29  1  0  0  0  0
 30 31  1  0  0  0  0
 32 33  1  0  0  0  0
 32 34  1  0  0  0  0
 32 56  1  0  0  0  0
 35 36  1  0  0  0  0
 35 37  1  0  0  0  0
 35 38  1  0  0  0  0
 35 59  1  0  0  0  0
 38 39  1  0  0  0  0
 38 40  1  0  0  0  0
 38 50  1  0  0  0  0
 41 42  1  0  0  0  0
 41 43  1  0  0  0  0
 41 44  1  0  0  0  0
 41 53  1  0  0  0  0
 44 45  1  0  0  0  0
 44 46  1  0  0  0  0
 44 47  1  0  0  0  0
 47 48  1  0  0  0  0
 47 49  1  0  0  0  0
 47 50  1  0  0  0  0
 50 51  1  0  0  0  0
 50 52  1  0  0  0  0
 53 54  1  0  0  0  0
 53 55  1  0  0  0  0
 53 56  1  0  0  0  0
 56 57  1  0  0  0  0
 56 58  1  0  0  0  0
 59 60  1  0  0  0  0
 59 61  1  0  0  0  0
 59 62  1  0  0  0  0
M  CHG  1  23  -1
M  END
>  <IDNUMBER>
AK-693/21141006

>  <NAME>
Embelin, derivative of

>  <ADD_INFO>
http://www.specs.net/enter.php?specsid=AK-693/21141006

>  <H_ACCEPTORS>
7

>  <H_DONORS>
3

>  <ROTATABLE_BONDS>
13

>  <LOGP>
4.8099999

>  <LOGS>
-6.5700002

>  <TPSA>
134.94

>  <PRICE>
N08

$$$$
AK-693/21141014
  MOE2011           3D

 68 69  0  0  1  0  0  0  0  0999 V2000
   -2.2830    1.1990   -0.0820 C   0  0  0  0  0  0  0  0  0  0  0  0
   -2.3280   -0.1920   -0.2300 C   0  0  0  0  0  0  0  0  0  0  0  0
   -1.3310   -0.9160   -0.9120 C   0  0  0  0  0  0  0  0  0  0  0  0
   -1.1720    1.8960   -0.5770 C   0  0  0  0  0  0  0  0  0  0  0  0
   -0.1710    1.2440   -1.3040 C   0  0  0  0  0  0  0  0  0  0  0  0
   -0.2590   -0.1610   -1.4450 C   0  0  0  0  0  0  0  0  0  0  0  0
   -1.4910   -2.3940   -0.9920 C   0  0  0  0  0  0  0  0  0  0  0  0
   -3.3250    2.0090    0.6010 C   0  0  0  0  0  0  0  0  0  0  0  0
   -3.4070   -0.8580    0.3900 O   0  0  0  0  0  0  0  0  0  0  0  0
   -3.6180   -2.2170    0.2730 C   0  0  0  0  0  0  0  0  0  0  0  0
   -2.5800   -2.9580   -0.4430 C   0  0  0  0  0  0  0  0  0  0  0  0
   -2.7490   -4.0290   -0.4890 H   0  0  0  0  0  0  0  0  0  0  0  0
    0.9660    2.0440   -1.9180 C   0  0  0  0  0  0  0  0  0  0  0  0
    1.1290    1.6770   -2.9350 H   0  0  0  0  0  0  0  0  0  0  0  0
    0.6710    3.0920   -2.0510 H   0  0  0  0  0  0  0  0  0  0  0  0
    2.2120    2.0080   -1.0710 C   0  0  0  0  0  0  0  0  0  0  0  0
    2.0330    2.3590   -0.0550 H   0  0  0  0  0  0  0  0  0  0  0  0
   -2.8970    2.9180    1.3240 O   0  0  0  0  0  0  0  0  0  0  0  0
   -4.6020   -2.7770    0.7410 O   0  0  0  0  0  0  0  0  0  0  0  0
    3.4580    1.6260   -1.4200 C   0  0  0  0  0  0  0  0  0  0  0  0
    4.2500   -0.4650    2.3270 C   0  0  0  0  0  0  0  0  0  0  0  0
    3.6950    0.5630    1.6560 C   0  0  0  0  0  0  0  0  0  0  0  0
    2.6120    0.5710    1.5410 H   0  0  0  0  0  0  0  0  0  0  0  0
   -1.0330    3.2450   -0.3410 O   0  0  0  0  0  0  0  0  0  0  0  0
   -1.6400    3.4790    0.4040 H   0  0  0  0  0  0  0  0  0  0  0  0
    0.7450   -0.8040   -2.1200 O   0  0  0  0  0  0  0  0  0  0  0  0
    1.5810   -0.3310   -1.9720 H   0  0  0  0  0  0  0  0  0  0  0  0
   -4.8250    1.8600    0.3390 C   0  0  3  0  0  0  0  0  0  0  0  0
   -0.5140   -3.3180   -1.6920 C   0  0  0  0  0  0  0  0  0  0  0  0
   -0.0030   -2.8490   -2.5340 H   0  0  0  0  0  0  0  0  0  0  0  0
   -1.0950   -4.1160   -2.1790 H   0  0  0  0  0  0  0  0  0  0  0  0
    4.3940    1.7540    1.0540 C   0  0  0  0  0  0  0  0  0  0  0  0
    3.8120    2.6580    1.2700 H   0  0  0  0  0  0  0  0  0  0  0  0
    5.3570    1.9200    1.5490 H   0  0  0  0  0  0  0  0  0  0  0  0
    4.6420    1.6110   -0.4560 C   0  0  0  0  0  0  0  0  0  0  0  0
    5.1990    0.6770   -0.6150 H   0  0  0  0  0  0  0  0  0  0  0  0
    5.3140    2.4240   -0.7600 H   0  0  0  0  0  0  0  0  0  0  0  0
    3.8500    1.1950   -2.8130 C   0  0  0  0  0  0  0  0  0  0  0  0
    4.7190    1.7680   -3.1540 H   0  0  0  0  0  0  0  0  0  0  0  0
    3.0660    1.3430   -3.5570 H   0  0  0  0  0  0  0  0  0  0  0  0
    4.1160    0.1330   -2.8150 H   0  0  0  0  0  0  0  0  0  0  0  0
    3.3890   -1.5580    2.9040 C   0  0  0  0  0  0  0  0  0  0  0  0
    3.6640   -2.5260    2.4730 H   0  0  0  0  0  0  0  0  0  0  0  0
    2.3240   -1.3970    2.7080 H   0  0  0  0  0  0  0  0  0  0  0  0
    3.5220   -1.6100    3.9900 H   0  0  0  0  0  0  0  0  0  0  0  0
    5.7240   -0.6450    2.5620 C   0  0  0  0  0  0  0  0  0  0  0  0
    5.9490   -0.5540    3.6290 H   0  0  0  0  0  0  0  0  0  0  0  0
    6.3410    0.0780    2.0240 H   0  0  0  0  0  0  0  0  0  0  0  0
    6.0390   -1.6400    2.2280 H   0  0  0  0  0  0  0  0  0  0  0  0
   -5.5260    1.2140    1.5420 C   0  0  0  0  0  0  0  0  0  0  0  0
   -5.2710    0.1530    1.6210 H   0  0  0  0  0  0  0  0  0  0  0  0
   -5.1670    1.6810    2.4680 H   0  0  0  0  0  0  0  0  0  0  0  0
   -5.2030    1.2570   -1.0120 C   0  0  0  0  0  0  0  0  0  0  0  0
   -6.2230    1.5480   -1.2880 H   0  0  0  0  0  0  0  0  0  0  0  0
   -5.1770    0.1650   -1.0050 H   0  0  0  0  0  0  0  0  0  0  0  0
   -4.5400    1.6110   -1.8080 H   0  0  0  0  0  0  0  0  0  0  0  0
    0.4820   -4.0150   -0.7540 C   0  0  0  0  0  0  0  0  0  0  0  0
   -0.0640   -4.5760    0.0150 H   0  0  0  0  0  0  0  0  0  0  0  0
    1.0420   -4.7580   -1.3360 H   0  0  0  0  0  0  0  0  0  0  0  0
   -7.0420    1.3470    1.4950 C   0  0  0  0  0  0  0  0  0  0  0  0
   -7.4650    0.7980    0.6480 H   0  0  0  0  0  0  0  0  0  0  0  0
   -7.3430    2.3960    1.4140 H   0  0  0  0  0  0  0  0  0  0  0  0
   -7.4840    0.9370    2.4090 H   0  0  0  0  0  0  0  0  0  0  0  0
    1.4780   -3.0930   -0.0710 C   0  0  0  0  0  0  0  0  0  0  0  0
    0.9790   -2.3450    0.5510 H   0  0  0  0  0  0  0  0  0  0  0  0
    2.1090   -2.5810   -0.8030 H   0  0  0  0  0  0  0  0  0  0  0  0
    2.1380   -3.6770    0.5790 H   0  0  0  0  0  0  0  0  0  0  0  0
   -5.1720    2.9040    0.2830 H   0  0  0  0  0  0  0  0  0  0  0  0
  1  2  2  0  0  0  0
  1  4  1  0  0  0  0
  1  8  1  0  0  0  0
  2  3  1  0  0  0  0
  2  9  1  0  0  0  0
  3  6  2  0  0  0  0
  3  7  1  0  0  0  0
  4  5  2  0  0  0  0
  4 24  1  0  0  0  0
  5  6  1  0  0  0  0
  5 13  1  0  0  0  0
  6 26  1  0  0  0  0
  7 11  2  0  0  0  0
  7 29  1  0  0  0  0
  8 18  2  0  0  0  0
  8 28  1  0  0  0  0
  9 10  1  0  0  0  0
 10 11  1  0  0  0  0
 10 19  2  0  0  0  0
 11 12  1  0  0  0  0
 13 14  1  0  0  0  0
 13 15  1  0  0  0  0
 13 16  1  0  0  0  0
 16 17  1  0  0  0  0
 16 20  2  0  0  0  0
 20 35  1  0  0  0  0
 20 38  1  0  0  0  0
 21 22  2  0  0  0  0
 21 42  1  0  0  0  0
 21 46  1  0  0  0  0
 22 23  1  0  0  0  0
 22 32  1  0  0  0  0
 24 25  1  0  0  0  0
 26 27  1  0  0  0  0
 28 50  1  0  0  0  0
 28 53  1  0  0  0  0
 28 68  1  0  0  0  0
 29 30  1  0  0  0  0
 29 31  1  0  0  0  0
 29 57  1  0  0  0  0
 32 33  1  0  0  0  0
 32 34  1  0  0  0  0
 32 35  1  0  0  0  0
 35 36  1  0  0  0  0
 35 37  1  0  0  0  0
 38 39  1  0  0  0  0
 38 40  1  0  0  0  0
 38 41  1  0  0  0  0
 42 43  1  0  0  0  0
 42 44  1  0  0  0  0
 42 45  1  0  0  0  0
 46 47  1  0  0  0  0
 46 48  1  0  0  0  0
 46 49  1  0  0  0  0
 50 51  1  0  0  0  0
 50 52  1  0  0  0  0
 50 60  1  0  0  0  0
 53 54  1  0  0  0  0
 53 55  1  0  0  0  0
 53 56  1  0  0  0  0
 57 58  1  0  0  0  0
 57 59  1  0  0  0  0
 57 64  1  0  0  0  0
 60 61  1  0  0  0  0
 60 62  1  0  0  0  0
 60 63  1  0  0  0  0
 64 65  1  0  0  0  0
 64 66  1  0  0  0  0
 64 67  1  0  0  0  0
M  END
>  <IDNUMBER>
AK-693/21141014

>  <NAME>
Surangin A

>  <ADD_INFO>
http://www.specs.net/enter.php?specsid=AK-693/21141014

>  <H_ACCEPTORS>
2

>  <H_DONORS>
2

>  <ROTATABLE_BONDS>
10

>  <LOGP>
8.5900002

>  <LOGS>
-9.1700001

>  <TPSA>
83.830002

>  <PRICE>
N07

$$$$
AK-693/21141015
  MOE2011           3D

 80 83  0  0  1  0  0  0  0  0999 V2000
    0.5510    0.8930    1.0210 C   0  0  2  0  0  0  0  0  0  0  0  0
   -0.9290    0.5430    0.8460 C   0  0  0  0  0  0  0  0  0  0  0  0
    1.3890    0.1690   -0.0880 C   0  0  2  0  0  0  0  0  0  0  0  0
   -3.0380    0.3730   -0.7520 C   0  0  2  0  0  0  0  0  0  0  0  0
   -1.5280    0.8630   -0.5250 C   0  0  3  0  0  0  0  0  0  0  0  0
   -3.8700    0.5540    0.5770 C   0  0  3  0  0  0  0  0  0  0  0  0
   -5.3740    0.0670    0.5250 C   0  0  0  0  0  0  0  0  0  0  0  0
   -1.6770    0.0620    1.8470 C   0  0  0  0  0  0  0  0  0  0  0  0
   -1.2340   -0.1530    2.8150 H   0  0  0  0  0  0  0  0  0  0  0  0
    2.8840    0.3080    0.3870 C   0  0  2  0  0  0  0  0  0  0  0  0
    1.3000    0.4440    2.2930 C   0  0  0  0  0  0  0  0  0  0  0  0
    1.0590    1.0540    3.1710 H   0  0  0  0  0  0  0  0  0  0  0  0
    1.0800   -0.5960    2.5580 H   0  0  0  0  0  0  0  0  0  0  0  0
    0.9410    0.6920   -1.4600 C   0  0  0  0  0  0  0  0  0  0  0  0
    1.1510    1.7550   -1.5830 H   0  0  0  0  0  0  0  0  0  0  0  0
    1.4760    0.1840   -2.2680 H   0  0  0  0  0  0  0  0  0  0  0  0
   -3.1480   -0.1460    1.7660 C   0  0  0  0  0  0  0  0  0  0  0  0
   -3.5560    0.2480    2.7050 H   0  0  0  0  0  0  0  0  0  0  0  0
   -3.3370   -1.2250    1.7650 H   0  0  0  0  0  0  0  0  0  0  0  0
   -5.4070   -1.3680   -0.0420 C   0  0  0  0  0  0  0  0  0  0  0  0
    7.2390   -1.0420    0.7350 C   0  0  0  0  0  0  0  0  0  0  0  0
   -3.1300   -1.1180   -1.1670 C   0  0  0  0  0  0  0  0  0  0  0  0
   -2.6640   -1.2710   -2.1470 H   0  0  0  0  0  0  0  0  0  0  0  0
   -2.5680   -1.7380   -0.4590 H   0  0  0  0  0  0  0  0  0  0  0  0
   -0.5690    0.4640   -1.6950 C   0  0  0  0  0  0  0  0  0  0  0  0
   -0.6980   -0.5910   -1.9500 H   0  0  0  0  0  0  0  0  0  0  0  0
   -0.8390    1.0180   -2.6010 H   0  0  0  0  0  0  0  0  0  0  0  0
    2.7830    0.5830    1.9140 C   0  0  0  0  0  0  0  0  0  0  0  0
    3.3920   -0.1280    2.4830 H   0  0  0  0  0  0  0  0  0  0  0  0
    3.1490    1.5810    2.1730 H   0  0  0  0  0  0  0  0  0  0  0  0
    6.1920   -1.9330    0.0380 C   0  0  0  0  0  0  0  0  0  0  0  0
   -6.2210   -2.2280    0.4990 N   0  0  0  0  0  0  0  0  0  0  0  0
   -4.5550   -1.6620   -1.2710 C   0  0  0  0  0  0  0  0  0  0  0  0
   -4.4820   -2.7390   -1.4510 H   0  0  0  0  0  0  0  0  0  0  0  0
   -5.0700   -1.2420   -2.1410 H   0  0  0  0  0  0  0  0  0  0  0  0
    8.3610   -0.9810    0.1560 O   0  0  0  0  0  0  0  0  0  0  0  0
    5.5180   -1.5140   -1.0470 C   0  0  0  0  0  0  0  0  0  0  0  0
    4.7940   -2.1890   -1.4990 H   0  0  0  0  0  0  0  0  0  0  0  0
    3.9500    1.1850   -0.3320 C   0  0  3  0  0  0  0  0  0  0  0  0
    0.5970    2.4500    1.0150 C   0  0  0  0  0  0  0  0  0  0  0  0
    1.5670    2.8530    1.3010 H   0  0  0  0  0  0  0  0  0  0  0  0
   -0.1140    2.8540    1.7490 H   0  0  0  0  0  0  0  0  0  0  0  0
    0.3390    2.8930    0.0500 H   0  0  0  0  0  0  0  0  0  0  0  0
    1.1270   -1.3870   -0.0920 C   0  0  0  0  0  0  0  0  0  0  0  0
    1.6650   -1.8550   -0.9250 H   0  0  0  0  0  0  0  0  0  0  0  0
    0.0730   -1.6560   -0.1960 H   0  0  0  0  0  0  0  0  0  0  0  0
    1.4780   -1.8740    0.8240 H   0  0  0  0  0  0  0  0  0  0  0  0
    6.8450   -0.5040    1.8090 O   0  5  0  0  0  0  0  0  0  0  0  0
   -3.5920    1.2550   -1.9020 C   0  0  0  0  0  0  0  0  0  0  0  0
   -2.9130    1.2850   -2.7590 H   0  0  0  0  0  0  0  0  0  0  0  0
   -3.7410    2.2880   -1.5680 H   0  0  0  0  0  0  0  0  0  0  0  0
   -4.5300    0.8930   -2.3180 H   0  0  0  0  0  0  0  0  0  0  0  0
   -6.2000   -3.4630   -0.1500 O   0  0  0  0  0  0  0  0  0  0  0  0
   -6.8510   -3.9750    0.3650 H   0  0  0  0  0  0  0  0  0  0  0  0
   -6.2790    0.9590   -0.3520 C   0  0  0  0  0  0  0  0  0  0  0  0
   -6.0030    2.0150   -0.2670 H   0  0  0  0  0  0  0  0  0  0  0  0
   -7.3310    0.8780   -0.0510 H   0  0  0  0  0  0  0  0  0  0  0  0
   -6.2800    0.6710   -1.4040 H   0  0  0  0  0  0  0  0  0  0  0  0
   -6.0080    0.1090    1.9430 C   0  0  0  0  0  0  0  0  0  0  0  0
   -5.8790    1.0960    2.4000 H   0  0  0  0  0  0  0  0  0  0  0  0
   -5.5830   -0.6450    2.6140 H   0  0  0  0  0  0  0  0  0  0  0  0
   -7.0850   -0.0990    1.9120 H   0  0  0  0  0  0  0  0  0  0  0  0
    5.6520   -0.1790   -1.7270 C   0  0  0  0  0  0  0  0  0  0  0  0
    6.4560    0.4290   -1.2990 H   0  0  0  0  0  0  0  0  0  0  0  0
    5.9380   -0.3710   -2.7690 H   0  0  0  0  0  0  0  0  0  0  0  0
    5.9830   -3.2740    0.6670 C   0  0  0  0  0  0  0  0  0  0  0  0
    6.9220   -3.8380    0.6810 H   0  0  0  0  0  0  0  0  0  0  0  0
    5.2430   -3.8720    0.1240 H   0  0  0  0  0  0  0  0  0  0  0  0
    5.6300   -3.1630    1.6980 H   0  0  0  0  0  0  0  0  0  0  0  0
    4.3440    0.6320   -1.7280 C   0  0  0  0  0  0  0  0  0  0  0  0
    3.5500    0.0110   -2.1480 H   0  0  0  0  0  0  0  0  0  0  0  0
    4.4830    1.4630   -2.4320 H   0  0  0  0  0  0  0  0  0  0  0  0
    3.6570    2.6830   -0.4190 C   0  0  0  0  0  0  0  0  0  0  0  0
    4.4930    3.2040   -0.9010 H   0  0  0  0  0  0  0  0  0  0  0  0
    3.5580    3.1290    0.5730 H   0  0  0  0  0  0  0  0  0  0  0  0
    2.7640    2.9100   -1.0010 H   0  0  0  0  0  0  0  0  0  0  0  0
   -1.5800    1.9620   -0.5470 H   0  0  0  0  0  0  0  0  0  0  0  0
   -3.8810    1.6310    0.8070 H   0  0  0  0  0  0  0  0  0  0  0  0
    3.3230   -0.6970    0.3330 H   0  0  0  0  0  0  0  0  0  0  0  0
    4.8510    1.1260    0.2960 H   0  0  0  0  0  0  0  0  0  0  0  0
  1  2  1  0  0  0  0
  1  3  1  0  0  0  0
  1 11  1  0  0  0  0
  1 40  1  0  0  0  0
  2  5  1  0  0  0  0
  2  8  2  0  0  0  0
  3 10  1  0  0  0  0
  3 14  1  0  0  0  0
  3 44  1  0  0  0  0
  4  5  1  0  0  0  0
  4  6  1  0  0  0  0
  4 22  1  0  0  0  0
  4 49  1  0  0  0  0
  5 25  1  0  0  0  0
  5 77  1  0  0  0  0
  6  7  1  0  0  0  0
  6 17  1  0  0  0  0
  6 78  1  0  0  0  0
  7 20  1  0  0  0  0
  7 55  1  0  0  0  0
  7 59  1  0  0  0  0
  8  9  1  0  0  0  0
  8 17  1  0  0  0  0
 10 28  1  0  0  0  0
 10 39  1  0  0  0  0
 10 79  1  0  0  0  0
 11 12  1  0  0  0  0
 11 13  1  0  0  0  0
 11 28  1  0  0  0  0
 14 15  1  0  0  0  0
 14 16  1  0  0  0  0
 14 25  1  0  0  0  0
 17 18  1  0  0  0  0
 17 19  1  0  0  0  0
 20 32  2  0  0  0  0
 20 33  1  0  0  0  0
 21 31  1  0  0  0  0
 21 36  2  0  0  0  0
 21 48  1  0  0  0  0
 22 23  1  0  0  0  0
 22 24  1  0  0  0  0
 22 33  1  0  0  0  0
 25 26  1  0  0  0  0
 25 27  1  0  0  0  0
 28 29  1  0  0  0  0
 28 30  1  0  0  0  0
 31 37  2  0  0  0  0
 31 66  1  0  0  0  0
 32 53  1  0  0  0  0
 33 34  1  0  0  0  0
 33 35  1  0  0  0  0
 37 38  1  0  0  0  0
 37 63  1  0  0  0  0
 39 70  1  0  0  0  0
 39 73  1  0  0  0  0
 39 80  1  0  0  0  0
 40 41  1  0  0  0  0
 40 42  1  0  0  0  0
 40 43  1  0  0  0  0
 44 45  1  0  0  0  0
 44 46  1  0  0  0  0
 44 47  1  0  0  0  0
 49 50  1  0  0  0  0
 49 51  1  0  0  0  0
 49 52  1  0  0  0  0
 53 54  1  0  0  0  0
 55 56  1  0  0  0  0
 55 57  1  0  0  0  0
 55 58  1  0  0  0  0
 59 60  1  0  0  0  0
 59 61  1  0  0  0  0
 59 62  1  0  0  0  0
 63 64  1  0  0  0  0
 63 65  1  0  0  0  0
 63 70  1  0  0  0  0
 66 67  1  0  0  0  0
 66 68  1  0  0  0  0
 66 69  1  0  0  0  0
 70 71  1  0  0  0  0
 70 72  1  0  0  0  0
 73 74  1  0  0  0  0
 73 75  1  0  0  0  0
 73 76  1  0  0  0  0
M  CHG  1  48  -1
M  END
>  <IDNUMBER>
AK-693/21141015

>  <NAME>
Masticadienoic acid, derivative of

>  <ADD_INFO>
http://www.specs.net/enter.php?specsid=AK-693/21141015

>  <H_ACCEPTORS>
2

>  <H_DONORS>
2

>  <ROTATABLE_BONDS>
5

>  <LOGP>
8.0200005

>  <LOGS>
-9.0699997

>  <TPSA>
69.889999

>  <PRICE>
N08

$$$$
AK-693/21141022
  MOE2011           3D

101107  0  0  1  0  0  0  0  0999 V2000
   -0.5300    0.4610    1.1310 C   0  0  2  0  0  0  0  0  0  0  0  0
   -2.2040   -1.6670   -0.5370 C   0  0  2  0  0  0  0  0  0  0  0  0
   -1.4240    2.8830    0.7180 C   0  0  2  0  0  0  0  0  0  0  0  0
   -1.8500   -0.1540   -0.8990 C   0  0  2  0  0  0  0  0  0  0  0  0
   -1.8040    1.4120    1.0910 C   0  0  3  0  0  0  0  0  0  0  0  0
   -0.4140    0.3640   -0.4600 C   0  0  3  0  0  0  0  0  0  0  0  0
   -1.4950   -1.7780    0.7620 C   0  0  3  0  0  0  0  0  0  0  0  0
   -0.4720   -3.5590    1.0760 C   0  0  2  0  0  0  0  0  0  0  0  0
   -0.9260   -0.9440    1.8190 C   0  0  3  0  0  0  0  0  0  0  0  0
   -0.1290   -2.3420    0.3040 C   0  0  2  0  0  0  0  0  0  0  0  0
   -0.0240    1.7260   -1.0480 N   0  3  2  0  0  0  0  0  0  0  0  0
    0.8460    1.9400   -0.5520 H   0  0  0  0  0  0  0  0  0  0  0  0
   -2.7580    0.7420    0.0300 C   0  0  1  0  0  0  0  0  0  0  0  0
   -0.9090    2.9240   -0.7380 C   0  0  0  0  0  0  0  0  0  0  0  0
   -0.2980    3.8120   -0.9320 H   0  0  0  0  0  0  0  0  0  0  0  0
   -1.7110    2.9250   -1.4780 H   0  0  0  0  0  0  0  0  0  0  0  0
   -1.7680   -3.0970   -1.3200 C   0  0  0  0  0  0  0  0  0  0  0  0
   -2.6520   -3.6740   -1.6050 H   0  0  0  0  0  0  0  0  0  0  0  0
   -1.2440   -2.8430   -2.2520 H   0  0  0  0  0  0  0  0  0  0  0  0
    0.5840    1.0830    2.0210 C   0  0  2  0  0  0  0  0  0  0  0  0
   -0.0040   -2.3360    2.2670 C   0  0  0  0  0  0  0  0  0  0  0  0
   -0.4450   -2.6360    3.2330 H   0  0  0  0  0  0  0  0  0  0  0  0
    1.0570   -2.1960    2.5030 H   0  0  0  0  0  0  0  0  0  0  0  0
    1.2180   -1.7630    0.4430 O   0  0  0  0  0  0  0  0  0  0  0  0
   -0.3540    3.4090    1.7170 C   0  0  1  0  0  0  0  0  0  0  0  0
    2.2860   -2.5780    0.2000 C   0  0  0  0  0  0  0  0  0  0  0  0
   -0.6950   -4.1830   -0.3750 C   0  0  2  0  0  0  0  0  0  0  0  0
    0.8900    2.5580    1.8190 C   0  0  0  0  0  0  0  0  0  0  0  0
    1.4770    2.9240    2.6730 H   0  0  0  0  0  0  0  0  0  0  0  0
    1.5770    2.7310    0.9830 H   0  0  0  0  0  0  0  0  0  0  0  0
   -3.6700   -1.7070   -0.4690 O   0  0  0  0  0  0  0  0  0  0  0  0
    3.5520   -1.8220    0.0810 C   0  0  0  0  0  0  0  0  0  0  0  0
    3.5810   -0.5140   -0.4100 C   0  0  0  0  0  0  0  0  0  0  0  0
    2.6670   -0.0050   -0.6830 H   0  0  0  0  0  0  0  0  0  0  0  0
    4.7980    0.1540   -0.5630 C   0  0  0  0  0  0  0  0  0  0  0  0
   -4.3930   -2.7250    0.0730 C   0  0  0  0  0  0  0  0  0  0  0  0
    5.9950   -0.4660   -0.1920 C   0  0  0  0  0  0  0  0  0  0  0  0
    2.2450   -3.7900    0.0710 O   0  0  0  0  0  0  0  0  0  0  0  0
   -0.7700   -4.4920    2.0470 O   0  0  0  0  0  0  0  0  0  0  0  0
   -1.1920   -5.2400    1.5640 H   0  0  0  0  0  0  0  0  0  0  0  0
   -2.6430    3.8530    0.8690 C   0  0  0  0  0  0  0  0  0  0  0  0
   -2.7320    4.1970    1.9070 H   0  0  0  0  0  0  0  0  0  0  0  0
   -3.6000    3.3840    0.6370 H   0  0  0  0  0  0  0  0  0  0  0  0
    4.7530   -2.4680    0.3930 C   0  0  0  0  0  0  0  0  0  0  0  0
    4.7520   -3.4990    0.7450 H   0  0  0  0  0  0  0  0  0  0  0  0
   -3.9530   -3.7500    0.5700 O   0  0  0  0  0  0  0  0  0  0  0  0
    5.9670   -1.7900    0.2570 C   0  0  0  0  0  0  0  0  0  0  0  0
    6.8980   -2.2950    0.5090 H   0  0  0  0  0  0  0  0  0  0  0  0
   -3.4820    1.6750   -0.7590 O   0  0  0  0  0  0  0  0  0  0  0  0
    0.5040    1.7350   -2.4730 C   0  0  0  0  0  0  0  0  0  0  0  0
    0.8820    2.7470   -2.6570 H   0  0  0  0  0  0  0  0  0  0  0  0
    1.3610    1.0540   -2.4980 H   0  0  0  0  0  0  0  0  0  0  0  0
    1.7980    0.3610    1.8580 O   0  0  0  0  0  0  0  0  0  0  0  0
    0.0560    4.7290    1.3680 O   0  0  0  0  0  0  0  0  0  0  0  0
    0.6480    5.0600    2.0660 H   0  0  0  0  0  0  0  0  0  0  0  0
   -1.3870   -5.4330   -0.1720 O   0  0  0  0  0  0  0  0  0  0  0  0
    4.7560    1.4290   -1.0650 O   0  0  0  0  0  0  0  0  0  0  0  0
    7.2400    0.0930   -0.2900 O   0  0  0  0  0  0  0  0  0  0  0  0
   -2.4760    4.9820    0.0100 O   0  0  0  0  0  0  0  0  0  0  0  0
   -5.8540   -2.4010   -0.0170 C   0  0  0  0  0  0  0  0  0  0  0  0
   -6.1280   -2.2080   -1.0570 H   0  0  0  0  0  0  0  0  0  0  0  0
   -6.0790   -1.5350    0.6090 H   0  0  0  0  0  0  0  0  0  0  0  0
   -6.4370   -3.2550    0.3400 H   0  0  0  0  0  0  0  0  0  0  0  0
   -4.6340    1.1340   -1.3940 C   0  0  0  0  0  0  0  0  0  0  0  0
   -5.1290    1.9410   -1.9400 H   0  0  0  0  0  0  0  0  0  0  0  0
   -5.3330    0.7430   -0.6490 H   0  0  0  0  0  0  0  0  0  0  0  0
   -4.3610    0.3540   -2.1090 H   0  0  0  0  0  0  0  0  0  0  0  0
    2.6490    0.3850    3.0010 C   0  0  0  0  0  0  0  0  0  0  0  0
    3.5060   -0.2640    2.8050 H   0  0  0  0  0  0  0  0  0  0  0  0
    2.1230    0.0020    3.8810 H   0  0  0  0  0  0  0  0  0  0  0  0
    3.0230    1.3940    3.1910 H   0  0  0  0  0  0  0  0  0  0  0  0
   -1.3680   -6.2700   -1.3230 C   0  0  0  0  0  0  0  0  0  0  0  0
   -1.9400   -7.1740   -1.0980 H   0  0  0  0  0  0  0  0  0  0  0  0
   -0.3400   -6.5600   -1.5620 H   0  0  0  0  0  0  0  0  0  0  0  0
   -1.8260   -5.7720   -2.1820 H   0  0  0  0  0  0  0  0  0  0  0  0
    4.9380    1.3960   -2.4820 C   0  0  0  0  0  0  0  0  0  0  0  0
    4.9010    2.4260   -2.8480 H   0  0  0  0  0  0  0  0  0  0  0  0
    4.1330    0.8340   -2.9710 H   0  0  0  0  0  0  0  0  0  0  0  0
    5.9130    0.9760   -2.7510 H   0  0  0  0  0  0  0  0  0  0  0  0
    7.3330    1.4150    0.2370 C   0  0  0  0  0  0  0  0  0  0  0  0
    8.3620    1.5630    0.5780 H   0  0  0  0  0  0  0  0  0  0  0  0
    6.6710    1.5730    1.0960 H   0  0  0  0  0  0  0  0  0  0  0  0
    7.1370    2.1520   -0.5470 H   0  0  0  0  0  0  0  0  0  0  0  0
   -3.5060    5.9450    0.1880 C   0  0  0  0  0  0  0  0  0  0  0  0
   -3.3250    6.7750   -0.5010 H   0  0  0  0  0  0  0  0  0  0  0  0
   -3.4960    6.3320    1.2110 H   0  0  0  0  0  0  0  0  0  0  0  0
   -4.4830    5.5070   -0.0410 H   0  0  0  0  0  0  0  0  0  0  0  0
   -0.5090    1.3490   -3.5270 C   0  0  0  0  0  0  0  0  0  0  0  0
   -1.4600    1.8750   -3.4160 H   0  0  0  0  0  0  0  0  0  0  0  0
   -0.6910    0.2710   -3.5250 H   0  0  0  0  0  0  0  0  0  0  0  0
   -0.1130    1.5920   -4.5200 H   0  0  0  0  0  0  0  0  0  0  0  0
   -2.0740    0.0130   -1.9510 H   0  0  0  0  0  0  0  0  0  0  0  0
   -2.2970    1.4180    2.0730 H   0  0  0  0  0  0  0  0  0  0  0  0
    0.3700   -0.2730   -0.8430 H   0  0  0  0  0  0  0  0  0  0  0  0
   -2.1870   -2.4210    1.3330 H   0  0  0  0  0  0  0  0  0  0  0  0
   -1.6210   -0.7520    2.6470 H   0  0  0  0  0  0  0  0  0  0  0  0
   -0.0190   -2.3110   -0.7820 H   0  0  0  0  0  0  0  0  0  0  0  0
   -3.4840    0.1830    0.6300 H   0  0  0  0  0  0  0  0  0  0  0  0
    0.2420    0.9700    3.0600 H   0  0  0  0  0  0  0  0  0  0  0  0
   -0.8040    3.4680    2.7180 H   0  0  0  0  0  0  0  0  0  0  0  0
    0.2170   -4.3880   -0.9500 H   0  0  0  0  0  0  0  0  0  0  0  0
  1  5  1  0  0  0  0
  1  6  1  0  0  0  0
  1  9  1  0  0  0  0
  1 20  1  0  0  0  0
  2  4  1  0  0  0  0
  2  7  1  0  0  0  0
  2 17  1  0  0  0  0
  2 31  1  0  0  0  0
  3  5  1  0  0  0  0
  3 14  1  0  0  0  0
  3 25  1  0  0  0  0
  3 41  1  0  0  0  0
  4  6  1  0  0  0  0
  4 13  1  0  0  0  0
  4 92  1  0  0  0  0
  5 13  1  0  0  0  0
  5 93  1  0  0  0  0
  6 11  1  0  0  0  0
  6 94  1  0  0  0  0
  7  9  1  0  0  0  0
  7 10  1  0  0  0  0
  7 95  1  0  0  0  0
  8 10  1  0  0  0  0
  8 21  1  0  0  0  0
  8 27  1  0  0  0  0
  8 39  1  0  0  0  0
  9 21  1  0  0  0  0
  9 96  1  0  0  0  0
 10 24  1  0  0  0  0
 10 97  1  0  0  0  0
 11 12  1  0  0  0  0
 11 14  1  0  0  0  0
 11 50  1  0  0  0  0
 13 49  1  0  0  0  0
 13 98  1  0  0  0  0
 14 15  1  0  0  0  0
 14 16  1  0  0  0  0
 17 18  1  0  0  0  0
 17 19  1  0  0  0  0
 17 27  1  0  0  0  0
 20 28  1  0  0  0  0
 20 53  1  0  0  0  0
 20 99  1  0  0  0  0
 21 22  1  0  0  0  0
 21 23  1  0  0  0  0
 24 26  1  0  0  0  0
 25 28  1  0  0  0  0
 25 54  1  0  0  0  0
 25100  1  0  0  0  0
 26 32  1  0  0  0  0
 26 38  2  0  0  0  0
 27 56  1  0  0  0  0
 27101  1  0  0  0  0
 28 29  1  0  0  0  0
 28 30  1  0  0  0  0
 31 36  1  0  0  0  0
 32 33  2  0  0  0  0
 32 44  1  0  0  0  0
 33 34  1  0  0  0  0
 33 35  1  0  0  0  0
 35 37  2  0  0  0  0
 35 57  1  0  0  0  0
 36 46  2  0  0  0  0
 36 60  1  0  0  0  0
 37 47  1  0  0  0  0
 37 58  1  0  0  0  0
 39 40  1  0  0  0  0
 41 42  1  0  0  0  0
 41 43  1  0  0  0  0
 41 59  1  0  0  0  0
 44 45  1  0  0  0  0
 44 47  2  0  0  0  0
 47 48  1  0  0  0  0
 49 64  1  0  0  0  0
 50 51  1  0  0  0  0
 50 52  1  0  0  0  0
 50 88  1  0  0  0  0
 53 68  1  0  0  0  0
 54 55  1  0  0  0  0
 56 72  1  0  0  0  0
 57 76  1  0  0  0  0
 58 80  1  0  0  0  0
 59 84  1  0  0  0  0
 60 61  1  0  0  0  0
 60 62  1  0  0  0  0
 60 63  1  0  0  0  0
 64 65  1  0  0  0  0
 64 66  1  0  0  0  0
 64 67  1  0  0  0  0
 68 69  1  0  0  0  0
 68 70  1  0  0  0  0
 68 71  1  0  0  0  0
 72 73  1  0  0  0  0
 72 74  1  0  0  0  0
 72 75  1  0  0  0  0
 76 77  1  0  0  0  0
 76 78  1  0  0  0  0
 76 79  1  0  0  0  0
 80 81  1  0  0  0  0
 80 82  1  0  0  0  0
 80 83  1  0  0  0  0
 84 85  1  0  0  0  0
 84 86  1  0  0  0  0
 84 87  1  0  0  0  0
 88 89  1  0  0  0  0
 88 90  1  0  0  0  0
 88 91  1  0  0  0  0
M  CHG  1  11   1
M  END
>  <IDNUMBER>
AK-693/21141022

>  <NAME>
Pseudaconitine

>  <ADD_INFO>
http://www.specs.net/enter.php?specsid=AK-693/21141022

>  <H_ACCEPTORS>
11

>  <H_DONORS>
2

>  <ROTATABLE_BONDS>
13

>  <LOGP>
0.25

>  <LOGS>
-3.4300001

>  <TPSA>
151.67999

>  <PRICE>
N07

$$$$
AK-693/21141023
  MOE2011           3D

 73 77  0  0  1  0  0  0  0  0999 V2000
   -1.3270   -0.4530   -0.1580 C   0  0  1  0  0  0  0  0  0  0  0  0
   -1.2660   -2.0140   -0.4840 C   0  0  1  0  0  0  0  0  0  0  0  0
    0.1930    0.0070    0.0520 C   0  0  1  0  0  0  0  0  0  0  0  0
   -2.5090   -2.7130   -0.2660 O   0  0  0  0  0  0  0  0  0  0  0  0
    0.5570    1.5680    0.0320 C   0  0  1  0  0  0  0  0  0  0  0  0
   -2.0540   -2.6780   -1.6150 C   0  0  0  0  0  0  0  0  0  0  0  0
   -1.6730   -3.6030   -2.0380 H   0  0  0  0  0  0  0  0  0  0  0  0
   -2.6300   -2.1120   -2.3300 H   0  0  0  0  0  0  0  0  0  0  0  0
   -1.8880    0.3490   -1.3800 C   0  0  2  0  0  0  0  0  0  0  0  0
    2.1210    1.7910   -0.1190 C   0  0  3  0  0  0  0  0  0  0  0  0
    2.6960    0.8850   -1.0760 O   0  0  0  0  0  0  0  0  0  0  0  0
   -0.0610   -2.8060    0.0080 C   0  0  1  0  0  0  0  0  0  0  0  0
   -0.1320    2.1910   -1.2490 C   0  0  1  0  0  0  0  0  0  0  0  0
    4.0520    0.6250   -0.7090 C   0  0  1  0  0  0  0  0  0  0  0  0
   -2.1560   -0.2130    1.1410 C   0  0  0  0  0  0  0  0  0  0  0  0
   -2.1690    0.8440    1.4020 H   0  0  0  0  0  0  0  0  0  0  0  0
   -1.7260   -0.7550    1.9850 H   0  0  0  0  0  0  0  0  0  0  0  0
   -1.6240    1.8480   -1.3350 C   0  0  0  0  0  0  0  0  0  0  0  0
   -2.0530    2.3010   -2.2380 H   0  0  0  0  0  0  0  0  0  0  0  0
   -2.1370    2.3140   -0.4930 H   0  0  0  0  0  0  0  0  0  0  0  0
    0.8590   -0.7790    1.2080 C   0  0  0  0  0  0  0  0  0  0  0  0
    1.9340   -0.7910    1.0320 H   0  0  0  0  0  0  0  0  0  0  0  0
    0.6970   -0.2970    2.1760 H   0  0  0  0  0  0  0  0  0  0  0  0
   -3.2670    0.0120   -1.7390 O   0  0  0  0  0  0  0  0  0  0  0  0
    3.0170    1.7340    1.1170 C   0  0  0  0  0  0  0  0  0  0  0  0
    2.9980    2.6720    1.6810 H   0  0  0  0  0  0  0  0  0  0  0  0
    2.7440    0.9450    1.8170 H   0  0  0  0  0  0  0  0  0  0  0  0
    0.9520   -2.7350   -1.0170 O   0  0  0  0  0  0  0  0  0  0  0  0
    4.3810    1.4810    0.4960 C   0  0  1  0  0  0  0  0  0  0  0  0
   -4.4810    0.5390   -1.5000 C   0  0  0  0  0  0  0  0  0  0  0  0
    1.9780   -3.6220   -0.9400 C   0  0  0  0  0  0  0  0  0  0  0  0
    4.2350   -0.7440   -0.3270 O   0  0  0  0  0  0  0  0  0  0  0  0
   -4.2310   -0.7410    2.1520 C   0  0  0  0  0  0  0  0  0  0  0  0
    0.4390   -2.2440    1.3290 C   0  0  0  0  0  0  0  0  0  0  0  0
   -0.3400   -2.3520    2.0910 H   0  0  0  0  0  0  0  0  0  0  0  0
    1.2960   -2.8170    1.7000 H   0  0  0  0  0  0  0  0  0  0  0  0
   -3.5280   -0.6080    0.9940 O   0  0  0  0  0  0  0  0  0  0  0  0
    2.1000   -4.5060   -0.1040 O   0  0  0  0  0  0  0  0  0  0  0  0
   -5.4920   -0.0220   -1.9220 O   0  0  0  0  0  0  0  0  0  0  0  0
   -3.8110   -0.4930    3.2730 O   0  0  0  0  0  0  0  0  0  0  0  0
    0.1060    2.3230    1.3020 C   0  0  0  0  0  0  0  0  0  0  0  0
   -0.9710    2.4810    1.3480 H   0  0  0  0  0  0  0  0  0  0  0  0
    0.5580    3.3220    1.3430 H   0  0  0  0  0  0  0  0  0  0  0  0
    0.4050    1.8120    2.2200 H   0  0  0  0  0  0  0  0  0  0  0  0
    4.8500   -0.7900    0.9660 C   0  0  0  0  0  0  0  0  0  0  0  0
    4.1070   -1.1450    1.6870 H   0  0  0  0  0  0  0  0  0  0  0  0
    5.6760   -1.5080    0.9500 H   0  0  0  0  0  0  0  0  0  0  0  0
   -0.0100    3.7220   -1.3860 C   0  0  0  0  0  0  0  0  0  0  0  0
   -0.4960    4.0590   -2.3100 H   0  0  0  0  0  0  0  0  0  0  0  0
    1.0260    4.0620   -1.4460 H   0  0  0  0  0  0  0  0  0  0  0  0
   -0.4970    4.2450   -0.5570 H   0  0  0  0  0  0  0  0  0  0  0  0
    5.3160    0.6130    1.2960 C   0  0  0  0  0  0  0  0  0  0  0  0
    5.3170    0.8200    2.3690 H   0  0  0  0  0  0  0  0  0  0  0  0
    6.3400    0.7470    0.9260 H   0  0  0  0  0  0  0  0  0  0  0  0
   -4.5940    1.8270   -0.7540 C   0  0  0  0  0  0  0  0  0  0  0  0
   -4.0820    1.7850    0.2060 H   0  0  0  0  0  0  0  0  0  0  0  0
   -5.6510    2.0100   -0.5330 H   0  0  0  0  0  0  0  0  0  0  0  0
   -4.2440    2.6560   -1.3720 H   0  0  0  0  0  0  0  0  0  0  0  0
    2.9340   -3.3980   -2.0720 C   0  0  0  0  0  0  0  0  0  0  0  0
    3.0000   -2.3330   -2.3100 H   0  0  0  0  0  0  0  0  0  0  0  0
    2.5990   -3.9550   -2.9490 H   0  0  0  0  0  0  0  0  0  0  0  0
    3.9310   -3.7350   -1.7740 H   0  0  0  0  0  0  0  0  0  0  0  0
   -5.6190   -1.2130    1.8500 C   0  0  0  0  0  0  0  0  0  0  0  0
   -6.1690   -0.4310    1.3220 H   0  0  0  0  0  0  0  0  0  0  0  0
   -6.1370   -1.4410    2.7860 H   0  0  0  0  0  0  0  0  0  0  0  0
   -5.5800   -2.1260    1.2500 H   0  0  0  0  0  0  0  0  0  0  0  0
    0.6820   -0.3600   -0.8610 H   0  0  0  0  0  0  0  0  0  0  0  0
    4.8340    2.4360    0.2070 H   0  0  0  0  0  0  0  0  0  0  0  0
    4.7050    0.8310   -1.5640 H   0  0  0  0  0  0  0  0  0  0  0  0
   -1.3300   -0.0090   -2.2570 H   0  0  0  0  0  0  0  0  0  0  0  0
    2.2940    2.7870   -0.5380 H   0  0  0  0  0  0  0  0  0  0  0  0
   -0.3470   -3.8580    0.1450 H   0  0  0  0  0  0  0  0  0  0  0  0
    0.3540    1.7580   -2.1350 H   0  0  0  0  0  0  0  0  0  0  0  0
  1  2  1  0  0  0  0
  1  3  1  0  0  0  0
  1  9  1  0  0  0  0
  1 15  1  0  0  0  0
  2  4  1  0  0  0  0
  2  6  1  0  0  0  0
  2 12  1  0  0  0  0
  3  5  1  0  0  0  0
  3 21  1  0  0  0  0
  3 67  1  0  0  0  0
  4  6  1  0  0  0  0
  5 10  1  0  0  0  0
  5 13  1  0  0  0  0
  5 41  1  0  0  0  0
  6  7  1  0  0  0  0
  6  8  1  0  0  0  0
  9 18  1  0  0  0  0
  9 24  1  0  0  0  0
  9 70  1  0  0  0  0
 10 11  1  0  0  0  0
 10 25  1  0  0  0  0
 10 71  1  0  0  0  0
 11 14  1  0  0  0  0
 12 28  1  0  0  0  0
 12 34  1  0  0  0  0
 12 72  1  0  0  0  0
 13 18  1  0  0  0  0
 13 48  1  0  0  0  0
 13 73  1  0  0  0  0
 14 29  1  0  0  0  0
 14 32  1  0  0  0  0
 14 69  1  0  0  0  0
 15 16  1  0  0  0  0
 15 17  1  0  0  0  0
 15 37  1  0  0  0  0
 18 19  1  0  0  0  0
 18 20  1  0  0  0  0
 21 22  1  0  0  0  0
 21 23  1  0  0  0  0
 21 34  1  0  0  0  0
 24 30  1  0  0  0  0
 25 26  1  0  0  0  0
 25 27  1  0  0  0  0
 25 29  1  0  0  0  0
 28 31  1  0  0  0  0
 29 52  1  0  0  0  0
 29 68  1  0  0  0  0
 30 39  2  0  0  0  0
 30 55  1  0  0  0  0
 31 38  2  0  0  0  0
 31 59  1  0  0  0  0
 32 45  1  0  0  0  0
 33 37  1  0  0  0  0
 33 40  2  0  0  0  0
 33 63  1  0  0  0  0
 34 35  1  0  0  0  0
 34 36  1  0  0  0  0
 41 42  1  0  0  0  0
 41 43  1  0  0  0  0
 41 44  1  0  0  0  0
 45 46  1  0  0  0  0
 45 47  1  0  0  0  0
 45 52  1  0  0  0  0
 48 49  1  0  0  0  0
 48 50  1  0  0  0  0
 48 51  1  0  0  0  0
 52 53  1  0  0  0  0
 52 54  1  0  0  0  0
 55 56  1  0  0  0  0
 55 57  1  0  0  0  0
 55 58  1  0  0  0  0
 59 60  1  0  0  0  0
 59 61  1  0  0  0  0
 59 62  1  0  0  0  0
 63 64  1  0  0  0  0
 63 65  1  0  0  0  0
 63 66  1  0  0  0  0
M  END
>  <IDNUMBER>
AK-693/21141023

>  <NAME>
3-Epicaryoptin, derivative of

>  <ADD_INFO>
http://www.specs.net/enter.php?specsid=AK-693/21141023

>  <H_ACCEPTORS>
9

>  <H_DONORS>
0

>  <ROTATABLE_BONDS>
8

>  <LOGP>
3.0799999

>  <LOGS>
-5.4400001

>  <TPSA>
109.89

>  <PRICE>
N09

$$$$
AK-693/21141024
  MOE2011           3D

 42 43  0  0  1  0  0  0  0  0999 V2000
   -1.0450    1.0190   -0.2420 C   0  0  0  0  0  0  0  0  0  0  0  0
   -0.2700   -0.1320   -0.4500 C   0  0  0  0  0  0  0  0  0  0  0  0
   -2.4020    0.9610    0.0870 C   0  0  0  0  0  0  0  0  0  0  0  0
   -0.4010    2.2750   -0.3670 O   0  0  0  0  0  0  0  0  0  0  0  0
   -3.1210    2.2190    0.2790 C   0  0  0  0  0  0  0  0  0  0  0  0
   -4.1760    2.1840    0.5320 H   0  0  0  0  0  0  0  0  0  0  0  0
   -0.8890   -1.3840   -0.2870 C   0  0  0  0  0  0  0  0  0  0  0  0
   -3.0160   -0.2940    0.2230 C   0  0  0  0  0  0  0  0  0  0  0  0
    1.2030   -0.0180   -0.8140 C   0  0  0  0  0  0  0  0  0  0  0  0
    1.3640    0.9420   -1.3110 H   0  0  0  0  0  0  0  0  0  0  0  0
    1.4400   -0.7740   -1.5740 H   0  0  0  0  0  0  0  0  0  0  0  0
   -2.2510   -1.4570    0.0430 C   0  0  0  0  0  0  0  0  0  0  0  0
   -2.7160   -2.4260    0.1730 H   0  0  0  0  0  0  0  0  0  0  0  0
   -1.0670    3.4780   -0.1860 C   0  0  0  0  0  0  0  0  0  0  0  0
   -2.4940    3.3910    0.1510 C   0  0  0  0  0  0  0  0  0  0  0  0
   -3.0140    4.3320    0.2910 H   0  0  0  0  0  0  0  0  0  0  0  0
    2.1110   -0.1870    0.4210 C   0  0  3  0  0  0  0  0  0  0  0  0
    3.4730    0.5640    0.3310 C   0  0  0  0  0  0  0  0  0  0  0  0
   -0.5060    4.5610   -0.2980 O   0  0  0  0  0  0  0  0  0  0  0  0
   -0.0660   -2.4740   -0.4310 O   0  0  0  0  0  0  0  0  0  0  0  0
   -4.3520   -0.2860    0.5420 O   0  0  0  0  0  0  0  0  0  0  0  0
    4.1550    0.3810    1.5860 O   0  0  0  0  0  0  0  0  0  0  0  0
    5.0670    0.7030    1.4860 H   0  0  0  0  0  0  0  0  0  0  0  0
    2.3650   -1.5930    0.6030 O   0  0  0  0  0  0  0  0  0  0  0  0
    1.5170   -2.0620    0.4710 H   0  0  0  0  0  0  0  0  0  0  0  0
    4.3710    0.0080   -0.7790 C   0  0  0  0  0  0  0  0  0  0  0  0
    3.9070    0.1070   -1.7650 H   0  0  0  0  0  0  0  0  0  0  0  0
    4.6080   -1.0470   -0.6070 H   0  0  0  0  0  0  0  0  0  0  0  0
    5.3320    0.5350   -0.8030 H   0  0  0  0  0  0  0  0  0  0  0  0
    3.2920    2.0780    0.1660 C   0  0  0  0  0  0  0  0  0  0  0  0
    2.9080    2.3510   -0.8210 H   0  0  0  0  0  0  0  0  0  0  0  0
    4.2460    2.6000    0.3070 H   0  0  0  0  0  0  0  0  0  0  0  0
    2.6110    2.4720    0.9280 H   0  0  0  0  0  0  0  0  0  0  0  0
   -5.0130   -1.5380    0.6680 C   0  0  0  0  0  0  0  0  0  0  0  0
   -6.0630   -1.3390    0.9040 H   0  0  0  0  0  0  0  0  0  0  0  0
   -4.5930   -2.1250    1.4920 H   0  0  0  0  0  0  0  0  0  0  0  0
   -4.9840   -2.0970   -0.2730 H   0  0  0  0  0  0  0  0  0  0  0  0
   -0.6810   -3.7570   -0.4870 C   0  0  0  0  0  0  0  0  0  0  0  0
    0.0980   -4.4890   -0.7190 H   0  0  0  0  0  0  0  0  0  0  0  0
   -1.4320   -3.8050   -1.2830 H   0  0  0  0  0  0  0  0  0  0  0  0
   -1.1120   -4.0260    0.4830 H   0  0  0  0  0  0  0  0  0  0  0  0
    1.5960    0.1480    1.3320 H   0  0  0  0  0  0  0  0  0  0  0  0
  1  2  2  0  0  0  0
  1  3  1  0  0  0  0
  1  4  1  0  0  0  0
  2  7  1  0  0  0  0
  2  9  1  0  0  0  0
  3  5  1  0  0  0  0
  3  8  2  0  0  0  0
  4 14  1  0  0  0  0
  5  6  1  0  0  0  0
  5 15  2  0  0  0  0
  7 12  2  0  0  0  0
  7 20  1  0  0  0  0
  8 12  1  0  0  0  0
  8 21  1  0  0  0  0
  9 10  1  0  0  0  0
  9 11  1  0  0  0  0
  9 17  1  0  0  0  0
 12 13  1  0  0  0  0
 14 15  1  0  0  0  0
 14 19  2  0  0  0  0
 15 16  1  0  0  0  0
 17 18  1  0  0  0  0
 17 24  1  0  0  0  0
 17 42  1  0  0  0  0
 18 22  1  0  0  0  0
 18 26  1  0  0  0  0
 18 30  1  0  0  0  0
 20 38  1  0  0  0  0
 21 34  1  0  0  0  0
 22 23  1  0  0  0  0
 24 25  1  0  0  0  0
 26 27  1  0  0  0  0
 26 28  1  0  0  0  0
 26 29  1  0  0  0  0
 30 31  1  0  0  0  0
 30 32  1  0  0  0  0
 30 33  1  0  0  0  0
 34 35  1  0  0  0  0
 34 36  1  0  0  0  0
 34 37  1  0  0  0  0
 38 39  1  0  0  0  0
 38 40  1  0  0  0  0
 38 41  1  0  0  0  0
M  END
>  <IDNUMBER>
AK-693/21141024

>  <NAME>
Sibiricin, derivative of

>  <ADD_INFO>
http://www.specs.net/enter.php?specsid=AK-693/21141024

>  <H_ACCEPTORS>
3

>  <H_DONORS>
2

>  <ROTATABLE_BONDS>
5

>  <LOGP>
1.48

>  <LOGS>
-2.71

>  <TPSA>
85.220001

>  <PRICE>
N07

$$$$
AK-693/21141027
  MOE2011           3D

 39 43  0  0  0  0  0  0  0  0999 V2000
   -0.5270    0.1250   -0.0140 C   0  0  0  0  0  0  0  0  0  0  0  0
   -1.3490   -0.9230   -0.2140 N   0  3  0  0  0  0  0  0  0  0  0  0
   -0.9630    1.3850    0.1430 N   0  0  0  0  0  0  0  0  0  0  0  0
    0.9180   -0.0550    0.0460 C   0  0  0  0  0  0  0  0  0  0  0  0
   -2.3580    1.6770    0.2100 C   0  0  0  0  0  0  0  0  0  0  0  0
    1.7620    0.9940   -0.2450 C   0  0  0  0  0  0  0  0  0  0  0  0
   -3.2670    0.5420    0.1300 C   0  0  0  0  0  0  0  0  0  0  0  0
    1.6820   -1.1020    0.4790 N   0  0  0  0  0  0  0  0  0  0  0  0
    1.3480   -1.9780    0.8540 H   0  0  0  0  0  0  0  0  0  0  0  0
   -2.7180   -0.7280   -0.0700 C   0  0  0  0  0  0  0  0  0  0  0  0
    3.0980    0.5270   -0.1120 C   0  0  0  0  0  0  0  0  0  0  0  0
    3.0190   -0.7940    0.3360 C   0  0  0  0  0  0  0  0  0  0  0  0
   -0.0300    2.5530    0.2610 C   0  0  0  0  0  0  0  0  0  0  0  0
   -0.5190    3.4700   -0.0860 H   0  0  0  0  0  0  0  0  0  0  0  0
    0.2130    2.6730    1.3240 H   0  0  0  0  0  0  0  0  0  0  0  0
    1.2350    2.3360   -0.5740 C   0  0  0  0  0  0  0  0  0  0  0  0
    0.9920    2.3780   -1.6430 H   0  0  0  0  0  0  0  0  0  0  0  0
    1.9660    3.1220   -0.3600 H   0  0  0  0  0  0  0  0  0  0  0  0
   -2.7440    2.8260    0.3540 O   0  0  0  0  0  0  0  0  0  0  0  0
   -0.8670   -2.2500   -0.6650 C   0  0  0  0  0  0  0  0  0  0  0  0
   -1.5500   -2.6830   -1.4030 H   0  0  0  0  0  0  0  0  0  0  0  0
   -0.7660   -2.9150    0.1970 H   0  0  0  0  0  0  0  0  0  0  0  0
    0.0860   -2.1650   -1.1930 H   0  0  0  0  0  0  0  0  0  0  0  0
   -4.6480    0.7620    0.2650 C   0  0  0  0  0  0  0  0  0  0  0  0
   -5.0420    1.7660    0.4140 H   0  0  0  0  0  0  0  0  0  0  0  0
   -3.6360   -1.7970   -0.0890 C   0  0  0  0  0  0  0  0  0  0  0  0
   -3.3090   -2.8280   -0.1890 H   0  0  0  0  0  0  0  0  0  0  0  0
    4.3710    1.0990   -0.3090 C   0  0  0  0  0  0  0  0  0  0  0  0
    4.4720    2.1250   -0.6510 H   0  0  0  0  0  0  0  0  0  0  0  0
    4.1550   -1.5730    0.5930 C   0  0  0  0  0  0  0  0  0  0  0  0
    4.0740   -2.5960    0.9480 H   0  0  0  0  0  0  0  0  0  0  0  0
   -5.5240   -0.3140    0.2160 C   0  0  0  0  0  0  0  0  0  0  0  0
   -6.5950   -0.1560    0.3210 H   0  0  0  0  0  0  0  0  0  0  0  0
   -5.0170   -1.5950    0.0450 C   0  0  0  0  0  0  0  0  0  0  0  0
   -5.6950   -2.4470    0.0220 H   0  0  0  0  0  0  0  0  0  0  0  0
    5.5160    0.3290   -0.0650 C   0  0  0  0  0  0  0  0  0  0  0  0
    6.5000    0.7650   -0.2210 H   0  0  0  0  0  0  0  0  0  0  0  0
    5.4060   -0.9870    0.3790 C   0  0  0  0  0  0  0  0  0  0  0  0
    6.3090   -1.5660    0.5660 H   0  0  0  0  0  0  0  0  0  0  0  0
  1  2  2  0  0  0  0
  1  3  1  0  0  0  0
  1  4  1  0  0  0  0
  2 10  1  0  0  0  0
  2 20  1  0  0  0  0
  3  5  1  0  0  0  0
  3 13  1  0  0  0  0
  4  6  2  0  0  0  0
  4  8  1  0  0  0  0
  5  7  1  0  0  0  0
  5 19  2  0  0  0  0
  6 11  1  0  0  0  0
  6 16  1  0  0  0  0
  7 10  2  0  0  0  0
  7 24  1  0  0  0  0
  8  9  1  0  0  0  0
  8 12  1  0  0  0  0
 10 26  1  0  0  0  0
 11 12  2  0  0  0  0
 11 28  1  0  0  0  0
 12 30  1  0  0  0  0
 13 14  1  0  0  0  0
 13 15  1  0  0  0  0
 13 16  1  0  0  0  0
 16 17  1  0  0  0  0
 16 18  1  0  0  0  0
 20 21  1  0  0  0  0
 20 22  1  0  0  0  0
 20 23  1  0  0  0  0
 24 25  1  0  0  0  0
 24 32  2  0  0  0  0
 26 27  1  0  0  0  0
 26 34  2  0  0  0  0
 28 29  1  0  0  0  0
 28 36  2  0  0  0  0
 30 31  1  0  0  0  0
 30 38  2  0  0  0  0
 32 33  1  0  0  0  0
 32 34  1  0  0  0  0
 34 35  1  0  0  0  0
 36 37  1  0  0  0  0
 36 38  1  0  0  0  0
 38 39  1  0  0  0  0
M  CHG  1   2   1
M  END
>  <IDNUMBER>
AK-693/21141027

>  <NAME>
Evodiamine, derivative of

>  <ADD_INFO>
http://www.specs.net/enter.php?specsid=AK-693/21141027

>  <H_ACCEPTORS>
3

>  <H_DONORS>
1

>  <ROTATABLE_BONDS>
0

>  <LOGP>
-0.54000002

>  <LOGS>
-2.26

>  <TPSA>
39.110001

>  <PRICE>
N09

>  <SALTDATA>
Cl-

$$$$
AK-693/21141030
  MOE2011           3D

 47 49  0  0  0  0  0  0  0  0999 V2000
   -0.4730    2.6460    0.9940 N   0  0  0  0  0  0  0  0  0  0  0  0
    0.8380    2.3880    0.8640 N   0  0  0  0  0  0  0  0  0  0  0  0
    1.4840    3.0550    1.2680 H   0  0  0  0  0  0  0  0  0  0  0  0
    1.1180    1.2340    0.1840 C   0  0  0  0  0  0  0  0  0  0  0  0
   -0.1170    0.7180   -0.1520 C   0  0  0  0  0  0  0  0  0  0  0  0
   -0.2930   -0.1900   -0.7110 H   0  0  0  0  0  0  0  0  0  0  0  0
   -1.0760    1.6250    0.3700 C   0  0  0  0  0  0  0  0  0  0  0  0
    2.4400    0.7930   -0.0780 C   0  0  0  0  0  0  0  0  0  0  0  0
    2.5360   -0.0520   -0.7570 H   0  0  0  0  0  0  0  0  0  0  0  0
   -2.5020    1.5290    0.2650 C   0  0  0  0  0  0  0  0  0  0  0  0
   -3.0460    2.3870    0.6560 H   0  0  0  0  0  0  0  0  0  0  0  0
   -6.7380   -0.7640   -0.0090 C   0  0  0  0  0  0  0  0  0  0  0  0
    6.5520   -0.8820   -0.1760 C   0  0  0  0  0  0  0  0  0  0  0  0
    3.5450    1.3520    0.4420 C   0  0  0  0  0  0  0  0  0  0  0  0
    3.5100    2.2040    1.1130 H   0  0  0  0  0  0  0  0  0  0  0  0
   -3.1980    0.4980   -0.2440 C   0  0  0  0  0  0  0  0  0  0  0  0
   -2.6980   -0.3940   -0.6120 H   0  0  0  0  0  0  0  0  0  0  0  0
   -7.4380    0.3250   -0.5390 C   0  0  0  0  0  0  0  0  0  0  0  0
    7.5220    0.0970   -0.4120 C   0  0  0  0  0  0  0  0  0  0  0  0
   -5.3460   -0.6890    0.0890 C   0  0  0  0  0  0  0  0  0  0  0  0
   -4.7680   -1.5170    0.4870 H   0  0  0  0  0  0  0  0  0  0  0  0
    5.2420   -0.4810    0.1020 C   0  0  0  0  0  0  0  0  0  0  0  0
    4.4700   -1.2140    0.3110 H   0  0  0  0  0  0  0  0  0  0  0  0
    4.9070    0.8850    0.1290 C   0  0  0  0  0  0  0  0  0  0  0  0
   -4.6660    0.4700   -0.3230 C   0  0  0  0  0  0  0  0  0  0  0  0
    7.2150    1.4500   -0.3740 C   0  0  0  0  0  0  0  0  0  0  0  0
    7.9870    2.1910   -0.5570 H   0  0  0  0  0  0  0  0  0  0  0  0
   -6.7830    1.4740   -0.9610 C   0  0  0  0  0  0  0  0  0  0  0  0
   -7.3480    2.3030   -1.3760 H   0  0  0  0  0  0  0  0  0  0  0  0
    5.9060    1.8430   -0.0990 C   0  0  0  0  0  0  0  0  0  0  0  0
    5.6720    2.9050   -0.0730 H   0  0  0  0  0  0  0  0  0  0  0  0
   -5.3940    1.5450   -0.8550 C   0  0  0  0  0  0  0  0  0  0  0  0
   -4.8840    2.4410   -1.2040 H   0  0  0  0  0  0  0  0  0  0  0  0
   -7.5250   -1.8240    0.3640 O   0  0  0  0  0  0  0  0  0  0  0  0
    7.0140   -2.1720   -0.2410 O   0  0  0  0  0  0  0  0  0  0  0  0
   -8.8020    0.2660   -0.6520 O   0  0  0  0  0  0  0  0  0  0  0  0
   -9.0380   -0.6120   -0.2950 H   0  0  0  0  0  0  0  0  0  0  0  0
    8.8120   -0.2710   -0.6850 O   0  0  0  0  0  0  0  0  0  0  0  0
    8.8090   -1.2490   -0.6580 H   0  0  0  0  0  0  0  0  0  0  0  0
   -6.8570   -2.9300    0.9610 C   0  0  0  0  0  0  0  0  0  0  0  0
   -7.6140   -3.6720    1.2290 H   0  0  0  0  0  0  0  0  0  0  0  0
   -6.3430   -2.6320    1.8810 H   0  0  0  0  0  0  0  0  0  0  0  0
   -6.1650   -3.3990    0.2540 H   0  0  0  0  0  0  0  0  0  0  0  0
    6.0560   -3.2010   -0.0210 C   0  0  0  0  0  0  0  0  0  0  0  0
    6.5710   -4.1620   -0.1210 H   0  0  0  0  0  0  0  0  0  0  0  0
    5.2610   -3.1690   -0.7730 H   0  0  0  0  0  0  0  0  0  0  0  0
    5.6460   -3.1470    0.9930 H   0  0  0  0  0  0  0  0  0  0  0  0
  1  2  1  0  0  0  0
  1  7  2  0  0  0  0
  2  3  1  0  0  0  0
  2  4  1  0  0  0  0
  4  5  2  0  0  0  0
  4  8  1  0  0  0  0
  5  6  1  0  0  0  0
  5  7  1  0  0  0  0
  7 10  1  0  0  0  0
  8  9  1  0  0  0  0
  8 14  2  0  0  0  0
 10 11  1  0  0  0  0
 10 16  2  0  0  0  0
 12 18  2  0  0  0  0
 12 20  1  0  0  0  0
 12 34  1  0  0  0  0
 13 19  2  0  0  0  0
 13 22  1  0  0  0  0
 13 35  1  0  0  0  0
 14 15  1  0  0  0  0
 14 24  1  0  0  0  0
 16 17  1  0  0  0  0
 16 25  1  0  0  0  0
 18 28  1  0  0  0  0
 18 36  1  0  0  0  0
 19 26  1  0  0  0  0
 19 38  1  0  0  0  0
 20 21  1  0  0  0  0
 20 25  2  0  0  0  0
 22 23  1  0  0  0  0
 22 24  2  0  0  0  0
 24 30  1  0  0  0  0
 25 32  1  0  0  0  0
 26 27  1  0  0  0  0
 26 30  2  0  0  0  0
 28 29  1  0  0  0  0
 28 32  2  0  0  0  0
 30 31  1  0  0  0  0
 32 33  1  0  0  0  0
 34 40  1  0  0  0  0
 35 44  1  0  0  0  0
 36 37  1  0  0  0  0
 38 39  1  0  0  0  0
 40 41  1  0  0  0  0
 40 42  1  0  0  0  0
 40 43  1  0  0  0  0
 44 45  1  0  0  0  0
 44 46  1  0  0  0  0
 44 47  1  0  0  0  0
M  END
>  <IDNUMBER>
AK-693/21141030

>  <NAME>
Curcumin, derivative of

>  <ADD_INFO>
http://www.specs.net/enter.php?specsid=AK-693/21141030

>  <H_ACCEPTORS>
2

>  <H_DONORS>
3

>  <ROTATABLE_BONDS>
6

>  <LOGP>
3.8099999

>  <LOGS>
-5.1100001

>  <TPSA>
87.599998

>  <PRICE>
N08

>  <SALTDATA>
HSCN

$$$$
AK-693/21141035
  MOE2011           3D

 69 70  0  0  1  0  0  0  0  0999 V2000
    0.7530    0.1200    0.7610 C   0  0  0  0  0  0  0  0  0  0  0  0
   -1.8110    0.0410    0.5180 C   0  0  0  0  0  0  0  0  0  0  0  0
   -0.5060    0.7060    0.2240 C   0  0  0  0  0  0  0  0  0  0  0  0
    0.7880   -0.9920    1.5340 C   0  0  0  0  0  0  0  0  0  0  0  0
   -1.7870   -1.0340    1.3060 C   0  0  0  0  0  0  0  0  0  0  0  0
   -2.6960   -1.5310    1.6200 H   0  0  0  0  0  0  0  0  0  0  0  0
   -0.5560   -1.6390    1.8530 C   0  0  0  0  0  0  0  0  0  0  0  0
   -7.0020   -0.1670   -0.3440 C   0  0  0  0  0  0  0  0  0  0  0  0
   -2.8970    0.7040   -0.0280 N   0  0  0  0  0  0  0  0  0  0  0  0
   -2.6270    1.6130   -0.4110 H   0  0  0  0  0  0  0  0  0  0  0  0
   -6.0890   -1.2340   -0.3230 C   0  0  0  0  0  0  0  0  0  0  0  0
   -6.5640    1.1640   -0.3060 C   0  0  0  0  0  0  0  0  0  0  0  0
   -4.2530    0.3660   -0.1630 C   0  0  0  0  0  0  0  0  0  0  0  0
   -5.1920    1.4150   -0.2040 C   0  0  0  0  0  0  0  0  0  0  0  0
   -4.8190    2.4330   -0.1460 H   0  0  0  0  0  0  0  0  0  0  0  0
   -4.7210   -0.9540   -0.2220 C   0  0  0  0  0  0  0  0  0  0  0  0
   -3.9960   -1.7590   -0.2370 H   0  0  0  0  0  0  0  0  0  0  0  0
   -0.5120    1.7390   -0.4490 O   0  0  0  0  0  0  0  0  0  0  0  0
   -0.6980   -2.6480    2.5460 O   0  0  0  0  0  0  0  0  0  0  0  0
    1.7940   -1.5650    2.0450 O   0  5  0  0  0  0  0  0  0  0  0  0
    2.0130    0.8700    0.3540 C   0  0  0  0  0  0  0  0  0  0  0  0
    2.8760    0.1970    0.3700 H   0  0  0  0  0  0  0  0  0  0  0  0
    1.9260    1.2000   -0.6890 H   0  0  0  0  0  0  0  0  0  0  0  0
   -8.3490   -0.4310   -0.4790 O   0  0  0  0  0  0  0  0  0  0  0  0
   -7.5380    2.1280   -0.3660 O   0  0  0  0  0  0  0  0  0  0  0  0
   -6.6320   -2.4920   -0.4110 O   0  0  0  0  0  0  0  0  0  0  0  0
   -8.9470   -0.5560    0.8100 C   0  0  0  0  0  0  0  0  0  0  0  0
  -10.0100   -0.7710    0.6660 H   0  0  0  0  0  0  0  0  0  0  0  0
   -8.8670    0.3770    1.3800 H   0  0  0  0  0  0  0  0  0  0  0  0
   -8.5090   -1.3850    1.3770 H   0  0  0  0  0  0  0  0  0  0  0  0
   -5.7350   -3.5950   -0.3940 C   0  0  0  0  0  0  0  0  0  0  0  0
   -6.3300   -4.5110   -0.4640 H   0  0  0  0  0  0  0  0  0  0  0  0
   -5.1730   -3.6330    0.5450 H   0  0  0  0  0  0  0  0  0  0  0  0
   -5.0620   -3.5690   -1.2580 H   0  0  0  0  0  0  0  0  0  0  0  0
   -7.1180    3.4850   -0.3790 C   0  0  0  0  0  0  0  0  0  0  0  0
   -8.0110    4.1110   -0.4620 H   0  0  0  0  0  0  0  0  0  0  0  0
   -6.4830    3.6950   -1.2460 H   0  0  0  0  0  0  0  0  0  0  0  0
   -6.6130    3.7500    0.5560 H   0  0  0  0  0  0  0  0  0  0  0  0
    2.2830    2.0690    1.2680 C   0  0  0  0  0  0  0  0  0  0  0  0
    1.3740    2.6770    1.3610 H   0  0  0  0  0  0  0  0  0  0  0  0
    2.5170    1.7140    2.2800 H   0  0  0  0  0  0  0  0  0  0  0  0
    5.3420   -2.9990   -1.5970 C   0  0  0  0  0  0  0  0  0  0  0  0
    5.5000   -3.3840   -2.6110 H   0  0  0  0  0  0  0  0  0  0  0  0
    5.7630   -3.7410   -0.9070 H   0  0  0  0  0  0  0  0  0  0  0  0
    6.0940   -1.6720   -1.4600 C   0  0  0  0  0  0  0  0  0  0  0  0
    5.6680   -0.9490   -2.1650 H   0  0  0  0  0  0  0  0  0  0  0  0
    7.1360   -1.8350   -1.7620 H   0  0  0  0  0  0  0  0  0  0  0  0
    5.1720    1.8400   -0.6650 C   0  0  0  0  0  0  0  0  0  0  0  0
    4.4780    1.0630   -0.9990 H   0  0  0  0  0  0  0  0  0  0  0  0
    5.0660    2.6680   -1.3780 H   0  0  0  0  0  0  0  0  0  0  0  0
    6.6120    1.3260   -0.7590 C   0  0  0  0  0  0  0  0  0  0  0  0
    6.8220    1.0660   -1.8040 H   0  0  0  0  0  0  0  0  0  0  0  0
    7.2980    2.1470   -0.5130 H   0  0  0  0  0  0  0  0  0  0  0  0
    6.9550    0.1310    0.1370 C   0  0  0  0  0  0  0  0  0  0  0  0
    7.9970   -0.1530   -0.0540 H   0  0  0  0  0  0  0  0  0  0  0  0
    6.9170    0.4420    1.1880 H   0  0  0  0  0  0  0  0  0  0  0  0
    6.0670   -1.1060   -0.0380 C   0  0  0  0  0  0  0  0  0  0  0  0
    6.4150   -1.8760    0.6610 H   0  0  0  0  0  0  0  0  0  0  0  0
    5.0410   -0.8640    0.2570 H   0  0  0  0  0  0  0  0  0  0  0  0
    3.4090    2.9890    0.7840 C   0  0  0  0  0  0  0  0  0  0  0  0
    3.1450    3.4240   -0.1880 H   0  0  0  0  0  0  0  0  0  0  0  0
    3.4580    3.8290    1.4900 H   0  0  0  0  0  0  0  0  0  0  0  0
    4.7970    2.3400    0.7330 C   0  0  0  0  0  0  0  0  0  0  0  0
    5.5360    3.0960    1.0290 H   0  0  0  0  0  0  0  0  0  0  0  0
    4.8630    1.5330    1.4710 H   0  0  0  0  0  0  0  0  0  0  0  0
    3.8460   -2.8730   -1.3550 C   0  0  0  0  0  0  0  0  0  0  0  0
    3.4040   -2.1080   -2.0010 H   0  0  0  0  0  0  0  0  0  0  0  0
    3.6300   -2.6140   -0.3150 H   0  0  0  0  0  0  0  0  0  0  0  0
    3.3490   -3.8250   -1.5680 H   0  0  0  0  0  0  0  0  0  0  0  0
  1  3  1  0  0  0  0
  1  4  2  0  0  0  0
  1 21  1  0  0  0  0
  2  3  1  0  0  0  0
  2  5  2  0  0  0  0
  2  9  1  0  0  0  0
  3 18  2  0  0  0  0
  4  7  1  0  0  0  0
  4 20  1  0  0  0  0
  5  6  1  0  0  0  0
  5  7  1  0  0  0  0
  7 19  2  0  0  0  0
  8 11  2  0  0  0  0
  8 12  1  0  0  0  0
  8 24  1  0  0  0  0
  9 10  1  0  0  0  0
  9 13  1  0  0  0  0
 11 16  1  0  0  0  0
 11 26  1  0  0  0  0
 12 14  2  0  0  0  0
 12 25  1  0  0  0  0
 13 14  1  0  0  0  0
 13 16  2  0  0  0  0
 14 15  1  0  0  0  0
 16 17  1  0  0  0  0
 21 22  1  0  0  0  0
 21 23  1  0  0  0  0
 21 39  1  0  0  0  0
 24 27  1  0  0  0  0
 25 35  1  0  0  0  0
 26 31  1  0  0  0  0
 27 28  1  0  0  0  0
 27 29  1  0  0  0  0
 27 30  1  0  0  0  0
 31 32  1  0  0  0  0
 31 33  1  0  0  0  0
 31 34  1  0  0  0  0
 35 36  1  0  0  0  0
 35 37  1  0  0  0  0
 35 38  1  0  0  0  0
 39 40  1  0  0  0  0
 39 41  1  0  0  0  0
 39 60  1  0  0  0  0
 42 43  1  0  0  0  0
 42 44  1  0  0  0  0
 42 45  1  0  0  0  0
 42 66  1  0  0  0  0
 45 46  1  0  0  0  0
 45 47  1  0  0  0  0
 45 57  1  0  0  0  0
 48 49  1  0  0  0  0
 48 50  1  0  0  0  0
 48 51  1  0  0  0  0
 48 63  1  0  0  0  0
 51 52  1  0  0  0  0
 51 53  1  0  0  0  0
 51 54  1  0  0  0  0
 54 55  1  0  0  0  0
 54 56  1  0  0  0  0
 54 57  1  0  0  0  0
 57 58  1  0  0  0  0
 57 59  1  0  0  0  0
 60 61  1  0  0  0  0
 60 62  1  0  0  0  0
 60 63  1  0  0  0  0
 63 64  1  0  0  0  0
 63 65  1  0  0  0  0
 66 67  1  0  0  0  0
 66 68  1  0  0  0  0
 66 69  1  0  0  0  0
M  CHG  1  20  -1
M  END
>  <IDNUMBER>
AK-693/21141035

>  <NAME>
Embelin, derivative of

>  <ADD_INFO>
http://www.specs.net/enter.php?specsid=AK-693/21141035

>  <H_ACCEPTORS>
4

>  <H_DONORS>
2

>  <ROTATABLE_BONDS>
15

>  <LOGP>
5.9400001

>  <LOGS>
-7.6199999

>  <TPSA>
94.089996

>  <PRICE>
N08

$$$$
AK-693/21159002
  MOE2011           3D

 67 71  0  0  1  0  0  0  0  0999 V2000
   -0.1200    0.7800   -0.1250 C   0  0  2  0  0  0  0  0  0  0  0  0
    1.3510    0.4990   -0.0790 C   0  0  1  0  0  0  0  0  0  0  0  0
    0.8600    1.8350   -0.1730 O   0  0  0  0  0  0  0  0  0  0  0  0
   -0.6850    0.5220    1.2600 C   0  0  3  0  0  0  0  0  0  0  0  0
    1.7260    0.0270    1.2970 C   0  0  3  0  0  0  0  0  0  0  0  0
   -4.3450    0.5490    1.3240 C   0  0  1  0  0  0  0  0  0  0  0  0
    0.3750   -0.4040    1.9230 C   0  0  3  0  0  0  0  0  0  0  0  0
   -2.0650   -0.1380    1.3460 C   0  0  3  0  0  0  0  0  0  0  0  0
   -5.2860    1.6510    0.8010 C   0  0  1  0  0  0  0  0  0  0  0  0
   -5.5750    1.4890   -0.6990 C   0  0  2  0  0  0  0  0  0  0  0  0
   -4.8320   -0.7710    1.0700 O   0  0  0  0  0  0  0  0  0  0  0  0
   -3.0360    0.7480    0.7640 O   0  0  0  0  0  0  0  0  0  0  0  0
    2.2490    1.1090    2.1120 O   0  0  0  0  0  0  0  0  0  0  0  0
   -5.2190    0.0890   -1.2190 C   0  0  1  0  0  0  0  0  0  0  0  0
    3.4480    1.7060    1.9150 C   0  0  0  0  0  0  0  0  0  0  0  0
   -5.5690   -0.9480   -0.1520 C   0  0  1  0  0  0  0  0  0  0  0  0
    4.3520    1.0960    0.9300 C   0  0  0  0  0  0  0  0  0  0  0  0
   -2.1010   -1.4300    0.7270 O   0  0  0  0  0  0  0  0  0  0  0  0
    5.0810   -0.0420    1.2690 C   0  0  0  0  0  0  0  0  0  0  0  0
    4.9810   -0.4920    2.2540 H   0  0  0  0  0  0  0  0  0  0  0  0
    5.9600   -0.6030    0.3380 C   0  0  0  0  0  0  0  0  0  0  0  0
    0.0720   -1.8560    1.6590 C   0  0  0  0  0  0  0  0  0  0  0  0
    0.8190   -2.6000    1.9260 H   0  0  0  0  0  0  0  0  0  0  0  0
   -1.0690   -2.2520    1.0840 C   0  0  0  0  0  0  0  0  0  0  0  0
   -1.2850   -3.2800    0.8220 H   0  0  0  0  0  0  0  0  0  0  0  0
   -0.9000    0.6270   -1.3860 C   0  0  0  0  0  0  0  0  0  0  0  0
   -1.3750   -0.3540   -1.4640 H   0  0  0  0  0  0  0  0  0  0  0  0
   -0.2510    0.7350   -2.2620 H   0  0  0  0  0  0  0  0  0  0  0  0
    6.0790   -0.0490   -0.9510 C   0  0  0  0  0  0  0  0  0  0  0  0
    3.8050    2.7050    2.5260 O   0  0  0  0  0  0  0  0  0  0  0  0
    4.5130    1.7010   -0.3150 C   0  0  0  0  0  0  0  0  0  0  0  0
    3.9680    2.6090   -0.5640 H   0  0  0  0  0  0  0  0  0  0  0  0
    5.3670    1.1210   -1.2560 C   0  0  0  0  0  0  0  0  0  0  0  0
    5.4550    1.6070   -2.2230 H   0  0  0  0  0  0  0  0  0  0  0  0
   -6.5200    1.6030    1.5320 O   0  0  0  0  0  0  0  0  0  0  0  0
   -7.0280    2.4010    1.3000 H   0  0  0  0  0  0  0  0  0  0  0  0
   -4.8190    2.4670   -1.4190 O   0  0  0  0  0  0  0  0  0  0  0  0
   -5.1410    2.4770   -2.3370 H   0  0  0  0  0  0  0  0  0  0  0  0
   -5.9390   -0.1630   -2.4270 O   0  0  0  0  0  0  0  0  0  0  0  0
   -5.4220    0.2140   -3.1610 H   0  0  0  0  0  0  0  0  0  0  0  0
    6.6000   -1.7360    0.7760 O   0  0  0  0  0  0  0  0  0  0  0  0
   -5.2930   -2.3770   -0.6270 C   0  0  0  0  0  0  0  0  0  0  0  0
   -4.2360   -2.5130   -0.8770 H   0  0  0  0  0  0  0  0  0  0  0  0
   -5.9000   -2.6440   -1.4970 H   0  0  0  0  0  0  0  0  0  0  0  0
    6.8900   -0.7000   -1.8420 O   0  0  0  0  0  0  0  0  0  0  0  0
   -1.8980    1.6330   -1.4790 O   0  0  0  0  0  0  0  0  0  0  0  0
   -2.4820    1.5300   -0.6960 H   0  0  0  0  0  0  0  0  0  0  0  0
   -5.5990   -3.2900    0.4290 O   0  0  0  0  0  0  0  0  0  0  0  0
   -5.2160   -2.8770    1.2290 H   0  0  0  0  0  0  0  0  0  0  0  0
    7.9990   -1.7650    0.5000 C   0  0  0  0  0  0  0  0  0  0  0  0
    8.4810   -2.3430    1.2950 H   0  0  0  0  0  0  0  0  0  0  0  0
    8.4500   -0.7670    0.4940 H   0  0  0  0  0  0  0  0  0  0  0  0
    8.1870   -2.2860   -0.4440 H   0  0  0  0  0  0  0  0  0  0  0  0
    6.7660   -0.3450   -3.2140 C   0  0  0  0  0  0  0  0  0  0  0  0
    7.3600   -1.0560   -3.7970 H   0  0  0  0  0  0  0  0  0  0  0  0
    7.1730    0.6540   -3.3960 H   0  0  0  0  0  0  0  0  0  0  0  0
    5.7290   -0.4210   -3.5560 H   0  0  0  0  0  0  0  0  0  0  0  0
    1.8510    0.0290   -0.9100 H   0  0  0  0  0  0  0  0  0  0  0  0
   -0.7220    1.4860    1.7860 H   0  0  0  0  0  0  0  0  0  0  0  0
    2.4350   -0.8060    1.2830 H   0  0  0  0  0  0  0  0  0  0  0  0
   -4.2780    0.6520    2.4140 H   0  0  0  0  0  0  0  0  0  0  0  0
    0.3770   -0.2520    3.0100 H   0  0  0  0  0  0  0  0  0  0  0  0
   -2.3040   -0.2690    2.4120 H   0  0  0  0  0  0  0  0  0  0  0  0
   -4.8310    2.6300    0.9980 H   0  0  0  0  0  0  0  0  0  0  0  0
   -6.6310    1.7090   -0.9040 H   0  0  0  0  0  0  0  0  0  0  0  0
   -4.1530    0.0280   -1.4650 H   0  0  0  0  0  0  0  0  0  0  0  0
   -6.6340   -0.8830    0.1070 H   0  0  0  0  0  0  0  0  0  0  0  0
  1  2  1  0  0  0  0
  1  3  1  0  0  0  0
  1  4  1  0  0  0  0
  1 26  1  0  0  0  0
  2  3  1  0  0  0  0
  2  5  1  0  0  0  0
  2 58  1  0  0  0  0
  4  7  1  0  0  0  0
  4  8  1  0  0  0  0
  4 59  1  0  0  0  0
  5  7  1  0  0  0  0
  5 13  1  0  0  0  0
  5 60  1  0  0  0  0
  6  9  1  0  0  0  0
  6 11  1  0  0  0  0
  6 12  1  0  0  0  0
  6 61  1  0  0  0  0
  7 22  1  0  0  0  0
  7 62  1  0  0  0  0
  8 12  1  0  0  0  0
  8 18  1  0  0  0  0
  8 63  1  0  0  0  0
  9 10  1  0  0  0  0
  9 35  1  0  0  0  0
  9 64  1  0  0  0  0
 10 14  1  0  0  0  0
 10 37  1  0  0  0  0
 10 65  1  0  0  0  0
 11 16  1  0  0  0  0
 13 15  1  0  0  0  0
 14 16  1  0  0  0  0
 14 39  1  0  0  0  0
 14 66  1  0  0  0  0
 15 17  1  0  0  0  0
 15 30  2  0  0  0  0
 16 42  1  0  0  0  0
 16 67  1  0  0  0  0
 17 19  2  0  0  0  0
 17 31  1  0  0  0  0
 18 24  1  0  0  0  0
 19 20  1  0  0  0  0
 19 21  1  0  0  0  0
 21 29  2  0  0  0  0
 21 41  1  0  0  0  0
 22 23  1  0  0  0  0
 22 24  2  0  0  0  0
 24 25  1  0  0  0  0
 26 27  1  0  0  0  0
 26 28  1  0  0  0  0
 26 46  1  0  0  0  0
 29 33  1  0  0  0  0
 29 45  1  0  0  0  0
 31 32  1  0  0  0  0
 31 33  2  0  0  0  0
 33 34  1  0  0  0  0
 35 36  1  0  0  0  0
 37 38  1  0  0  0  0
 39 40  1  0  0  0  0
 41 50  1  0  0  0  0
 42 43  1  0  0  0  0
 42 44  1  0  0  0  0
 42 48  1  0  0  0  0
 45 54  1  0  0  0  0
 46 47  1  0  0  0  0
 48 49  1  0  0  0  0
 50 51  1  0  0  0  0
 50 52  1  0  0  0  0
 50 53  1  0  0  0  0
 54 55  1  0  0  0  0
 54 56  1  0  0  0  0
 54 57  1  0  0  0  0
M  END
>  <IDNUMBER>
AK-693/21159002

>  <NAME>
Tecomelloside

>  <ADD_INFO>
http://www.specs.net/enter.php?specsid=AK-693/21159002

>  <H_ACCEPTORS>
11

>  <H_DONORS>
5

>  <ROTATABLE_BONDS>
9

>  <LOGP>
-1.9299999

>  <LOGS>
-1.39

>  <TPSA>
186.13

>  <PRICE>
N07

$$$$
AK-693/21159005
  MOE2011           3D

 63 65  0  0  0  0  0  0  0  0999 V2000
   -3.3170   -0.1730    0.6200 N   0  0  0  0  0  0  0  0  0  0  0  0
   -3.0510   -1.4630    0.3330 C   0  0  0  0  0  0  0  0  0  0  0  0
   -1.7990   -2.0280    0.6540 C   0  0  0  0  0  0  0  0  0  0  0  0
   -4.0410   -2.2540   -0.2970 C   0  0  0  0  0  0  0  0  0  0  0  0
   -5.2470   -1.7530   -0.6120 N   0  0  0  0  0  0  0  0  0  0  0  0
   -1.5520   -3.3620    0.3120 C   0  0  0  0  0  0  0  0  0  0  0  0
   -4.5230    0.3300    0.3030 C   0  0  0  0  0  0  0  0  0  0  0  0
   -5.4960   -0.4660   -0.3170 C   0  0  0  0  0  0  0  0  0  0  0  0
   -3.7730   -3.5780   -0.6020 C   0  0  0  0  0  0  0  0  0  0  0  0
   -4.5310   -4.1880   -1.0840 H   0  0  0  0  0  0  0  0  0  0  0  0
   -2.5380   -4.1230   -0.3020 C   0  0  0  0  0  0  0  0  0  0  0  0
   -4.8180    1.6580    0.5910 C   0  0  0  0  0  0  0  0  0  0  0  0
   -4.0500    2.2610    1.0730 H   0  0  0  0  0  0  0  0  0  0  0  0
   -6.7310    0.0920   -0.6260 C   0  0  0  0  0  0  0  0  0  0  0  0
   -7.4750   -0.5420   -1.1050 H   0  0  0  0  0  0  0  0  0  0  0  0
   -6.0630    2.2280    0.2840 C   0  0  0  0  0  0  0  0  0  0  0  0
   -7.0360    1.4320   -0.3370 C   0  0  0  0  0  0  0  0  0  0  0  0
   -0.3670   -4.0130    0.5370 O   0  0  0  0  0  0  0  0  0  0  0  0
    0.2980   -3.3790    0.8510 H   0  0  0  0  0  0  0  0  0  0  0  0
   -2.2800   -5.4270   -0.6180 O   0  0  0  0  0  0  0  0  0  0  0  0
   -1.3610   -5.5680   -0.3090 H   0  0  0  0  0  0  0  0  0  0  0  0
   -0.7540   -1.1740    1.3420 C   0  0  0  0  0  0  0  0  0  0  0  0
   -1.2400   -0.4210    1.9760 H   0  0  0  0  0  0  0  0  0  0  0  0
   -0.1760   -1.7870    2.0440 H   0  0  0  0  0  0  0  0  0  0  0  0
   -6.3200    3.6710    0.6210 C   0  0  0  0  0  0  0  0  0  0  0  0
   -5.4570    4.1280    1.1170 H   0  0  0  0  0  0  0  0  0  0  0  0
   -7.1740    3.7560    1.3010 H   0  0  0  0  0  0  0  0  0  0  0  0
   -6.5190    4.2440   -0.2900 H   0  0  0  0  0  0  0  0  0  0  0  0
   -8.3920    1.9760   -0.6930 C   0  0  0  0  0  0  0  0  0  0  0  0
   -9.0080    1.2230   -1.1970 H   0  0  0  0  0  0  0  0  0  0  0  0
   -8.2940    2.8270   -1.3740 H   0  0  0  0  0  0  0  0  0  0  0  0
   -8.9250    2.2880    0.2100 H   0  0  0  0  0  0  0  0  0  0  0  0
    0.1760   -0.4900    0.3360 C   0  0  0  0  0  0  0  0  0  0  0  0
    0.6780   -1.2510   -0.2730 H   0  0  0  0  0  0  0  0  0  0  0  0
   -0.4100    0.1320   -0.3520 H   0  0  0  0  0  0  0  0  0  0  0  0
    7.6660   -0.1990    0.6940 C   0  0  0  0  0  0  0  0  0  0  0  0
    8.2920    0.6190    1.0690 H   0  0  0  0  0  0  0  0  0  0  0  0
    7.0740   -0.5700    1.5400 H   0  0  0  0  0  0  0  0  0  0  0  0
    6.7350    0.3190   -0.4030 C   0  0  0  0  0  0  0  0  0  0  0  0
    6.1290   -0.5130   -0.7810 H   0  0  0  0  0  0  0  0  0  0  0  0
    7.3320    0.6950   -1.2440 H   0  0  0  0  0  0  0  0  0  0  0  0
    3.0400    0.2980   -0.7370 C   0  0  0  0  0  0  0  0  0  0  0  0
    3.6280   -0.3520   -0.0790 H   0  0  0  0  0  0  0  0  0  0  0  0
    2.4420   -0.3670   -1.3710 H   0  0  0  0  0  0  0  0  0  0  0  0
    3.9690    1.0960   -1.6570 C   0  0  0  0  0  0  0  0  0  0  0  0
    4.5420    0.3890   -2.2690 H   0  0  0  0  0  0  0  0  0  0  0  0
    3.3590    1.6760   -2.3610 H   0  0  0  0  0  0  0  0  0  0  0  0
    4.9390    2.0560   -0.9580 C   0  0  0  0  0  0  0  0  0  0  0  0
    5.5790    2.5130   -1.7240 H   0  0  0  0  0  0  0  0  0  0  0  0
    4.3740    2.8830   -0.5120 H   0  0  0  0  0  0  0  0  0  0  0  0
    5.8290    1.4340    0.1220 C   0  0  0  0  0  0  0  0  0  0  0  0
    6.4530    2.2310    0.5470 H   0  0  0  0  0  0  0  0  0  0  0  0
    5.2130    1.0570    0.9470 H   0  0  0  0  0  0  0  0  0  0  0  0
    1.2130    0.3790    1.0520 C   0  0  0  0  0  0  0  0  0  0  0  0
    0.6920    1.0890    1.7050 H   0  0  0  0  0  0  0  0  0  0  0  0
    1.8370   -0.2480    1.7020 H   0  0  0  0  0  0  0  0  0  0  0  0
    2.1080    1.1780    0.0990 C   0  0  0  0  0  0  0  0  0  0  0  0
    1.4860    1.7940   -0.5620 H   0  0  0  0  0  0  0  0  0  0  0  0
    2.7020    1.8680    0.7080 H   0  0  0  0  0  0  0  0  0  0  0  0
    8.5600   -1.3180    0.1840 C   0  0  0  0  0  0  0  0  0  0  0  0
    9.1890   -0.9720   -0.6430 H   0  0  0  0  0  0  0  0  0  0  0  0
    7.9650   -2.1670   -0.1690 H   0  0  0  0  0  0  0  0  0  0  0  0
    9.2170   -1.6740    0.9850 H   0  0  0  0  0  0  0  0  0  0  0  0
  1  2  2  0  0  0  0
  1  7  1  0  0  0  0
  2  3  1  0  0  0  0
  2  4  1  0  0  0  0
  3  6  2  0  0  0  0
  3 22  1  0  0  0  0
  4  5  2  0  0  0  0
  4  9  1  0  0  0  0
  5  8  1  0  0  0  0
  6 11  1  0  0  0  0
  6 18  1  0  0  0  0
  7  8  2  0  0  0  0
  7 12  1  0  0  0  0
  8 14  1  0  0  0  0
  9 10  1  0  0  0  0
  9 11  2  0  0  0  0
 11 20  1  0  0  0  0
 12 13  1  0  0  0  0
 12 16  2  0  0  0  0
 14 15  1  0  0  0  0
 14 17  2  0  0  0  0
 16 17  1  0  0  0  0
 16 25  1  0  0  0  0
 17 29  1  0  0  0  0
 18 19  1  0  0  0  0
 20 21  1  0  0  0  0
 22 23  1  0  0  0  0
 22 24  1  0  0  0  0
 22 33  1  0  0  0  0
 25 26  1  0  0  0  0
 25 27  1  0  0  0  0
 25 28  1  0  0  0  0
 29 30  1  0  0  0  0
 29 31  1  0  0  0  0
 29 32  1  0  0  0  0
 33 34  1  0  0  0  0
 33 35  1  0  0  0  0
 33 54  1  0  0  0  0
 36 37  1  0  0  0  0
 36 38  1  0  0  0  0
 36 39  1  0  0  0  0
 36 60  1  0  0  0  0
 39 40  1  0  0  0  0
 39 41  1  0  0  0  0
 39 51  1  0  0  0  0
 42 43  1  0  0  0  0
 42 44  1  0  0  0  0
 42 45  1  0  0  0  0
 42 57  1  0  0  0  0
 45 46  1  0  0  0  0
 45 47  1  0  0  0  0
 45 48  1  0  0  0  0
 48 49  1  0  0  0  0
 48 50  1  0  0  0  0
 48 51  1  0  0  0  0
 51 52  1  0  0  0  0
 51 53  1  0  0  0  0
 54 55  1  0  0  0  0
 54 56  1  0  0  0  0
 54 57  1  0  0  0  0
 57 58  1  0  0  0  0
 57 59  1  0  0  0  0
 60 61  1  0  0  0  0
 60 62  1  0  0  0  0
 60 63  1  0  0  0  0
M  END
>  <IDNUMBER>
AK-693/21159005

>  <NAME>
Embelin, derivative of

>  <ADD_INFO>
http://www.specs.net/enter.php?specsid=AK-693/21159005

>  <H_ACCEPTORS>
2

>  <H_DONORS>
2

>  <ROTATABLE_BONDS>
10

>  <LOGP>
7.8800001

>  <LOGS>
-9.3400002

>  <TPSA>
66.239998

>  <PRICE>
N09

$$$$
AK-693/21159006
  MOE2011           3D

 56 58  0  0  1  0  0  0  0  0999 V2000
   -4.3000   -1.1560    0.6760 C   0  0  0  0  0  0  0  0  0  0  0  0
   -4.3500   -0.0180   -0.0260 C   0  0  0  0  0  0  0  0  0  0  0  0
   -3.0180   -1.6910    1.2360 C   0  0  0  0  0  0  0  0  0  0  0  0
   -1.8110    0.1930    0.1970 C   0  0  0  0  0  0  0  0  0  0  0  0
   -3.1020    0.7460   -0.2770 C   0  0  0  0  0  0  0  0  0  0  0  0
   -1.7090   -0.9580    0.9030 C   0  0  0  0  0  0  0  0  0  0  0  0
   -5.4810    0.5590   -0.5690 N   0  0  0  0  0  0  0  0  0  0  0  0
   -5.3190    1.4330   -1.0650 H   0  0  0  0  0  0  0  0  0  0  0  0
   -5.7290   -2.1070    1.0090 S   0  0  0  0  0  0  0  0  0  0  0  0
   -6.7720    0.0340   -0.4750 C   0  0  0  0  0  0  0  0  0  0  0  0
   -7.0240   -1.1670    0.2090 C   0  0  0  0  0  0  0  0  0  0  0  0
   -3.0400   -2.7010    1.9450 O   0  0  0  0  0  0  0  0  0  0  0  0
   -3.1710    1.8150   -0.8860 O   0  0  0  0  0  0  0  0  0  0  0  0
   -0.6580   -1.5120    1.3420 O   0  5  0  0  0  0  0  0  0  0  0  0
   -0.5930    1.0130   -0.2020 C   0  0  0  0  0  0  0  0  0  0  0  0
    0.2930    0.3700   -0.2670 H   0  0  0  0  0  0  0  0  0  0  0  0
   -0.7250    1.4080   -1.2180 H   0  0  0  0  0  0  0  0  0  0  0  0
   -7.8410    0.7140   -1.0760 C   0  0  0  0  0  0  0  0  0  0  0  0
   -7.6660    1.6440   -1.6110 H   0  0  0  0  0  0  0  0  0  0  0  0
   -8.3340   -1.6640    0.2810 C   0  0  0  0  0  0  0  0  0  0  0  0
   -8.5430   -2.5930    0.8080 H   0  0  0  0  0  0  0  0  0  0  0  0
   -0.3320    2.1630    0.7780 C   0  0  0  0  0  0  0  0  0  0  0  0
   -1.2340    2.7820    0.8690 H   0  0  0  0  0  0  0  0  0  0  0  0
   -0.1380    1.7640    1.7810 H   0  0  0  0  0  0  0  0  0  0  0  0
    7.2800   -2.1600   -0.8010 C   0  0  0  0  0  0  0  0  0  0  0  0
    8.0100   -1.3560   -0.9560 H   0  0  0  0  0  0  0  0  0  0  0  0
    7.4920   -2.6060    0.1780 H   0  0  0  0  0  0  0  0  0  0  0  0
    5.8640   -1.5850   -0.8130 C   0  0  0  0  0  0  0  0  0  0  0  0
    5.1380   -2.3910   -0.6510 H   0  0  0  0  0  0  0  0  0  0  0  0
    5.6520   -1.1520   -1.7990 H   0  0  0  0  0  0  0  0  0  0  0  0
    2.6760    1.6810    1.4310 C   0  0  0  0  0  0  0  0  0  0  0  0
    2.6350    2.3780    2.2770 H   0  0  0  0  0  0  0  0  0  0  0  0
    2.0140    0.8440    1.6760 H   0  0  0  0  0  0  0  0  0  0  0  0
    4.1120    1.1600    1.3090 C   0  0  0  0  0  0  0  0  0  0  0  0
    4.7890    1.9930    1.0840 H   0  0  0  0  0  0  0  0  0  0  0  0
    4.4150    0.7640    2.2870 H   0  0  0  0  0  0  0  0  0  0  0  0
    4.2720    0.0630    0.2540 C   0  0  0  0  0  0  0  0  0  0  0  0
    3.5490   -0.7400    0.4430 H   0  0  0  0  0  0  0  0  0  0  0  0
    4.0570    0.4670   -0.7420 H   0  0  0  0  0  0  0  0  0  0  0  0
    5.6900   -0.5130    0.2640 C   0  0  0  0  0  0  0  0  0  0  0  0
    6.4150    0.2940    0.0990 H   0  0  0  0  0  0  0  0  0  0  0  0
    5.9040   -0.9430    1.2500 H   0  0  0  0  0  0  0  0  0  0  0  0
    0.8220    3.0770    0.3510 C   0  0  0  0  0  0  0  0  0  0  0  0
    0.5530    3.5690   -0.5920 H   0  0  0  0  0  0  0  0  0  0  0  0
    0.9220    3.8760    1.0960 H   0  0  0  0  0  0  0  0  0  0  0  0
    2.1830    2.3960    0.1700 C   0  0  0  0  0  0  0  0  0  0  0  0
    2.1290    1.6940   -0.6690 H   0  0  0  0  0  0  0  0  0  0  0  0
    2.9120    3.1640   -0.1160 H   0  0  0  0  0  0  0  0  0  0  0  0
   -9.1420    0.2130   -0.9990 C   0  0  0  0  0  0  0  0  0  0  0  0
   -9.9610    0.7520   -1.4690 H   0  0  0  0  0  0  0  0  0  0  0  0
   -9.3890   -0.9760   -0.3200 C   0  0  0  0  0  0  0  0  0  0  0  0
  -10.4000   -1.3700   -0.2580 H   0  0  0  0  0  0  0  0  0  0  0  0
    7.4630   -3.2150   -1.8800 C   0  0  0  0  0  0  0  0  0  0  0  0
    7.2910   -2.7920   -2.8750 H   0  0  0  0  0  0  0  0  0  0  0  0
    6.7680   -4.0480   -1.7360 H   0  0  0  0  0  0  0  0  0  0  0  0
    8.4810   -3.6140   -1.8520 H   0  0  0  0  0  0  0  0  0  0  0  0
  1  2  2  0  0  0  0
  1  3  1  0  0  0  0
  1  9  1  0  0  0  0
  2  5  1  0  0  0  0
  2  7  1  0  0  0  0
  3  6  1  0  0  0  0
  3 12  2  0  0  0  0
  4  5  1  0  0  0  0
  4  6  2  0  0  0  0
  4 15  1  0  0  0  0
  5 13  2  0  0  0  0
  6 14  1  0  0  0  0
  7  8  1  0  0  0  0
  7 10  1  0  0  0  0
  9 11  1  0  0  0  0
 10 11  2  0  0  0  0
 10 18  1  0  0  0  0
 11 20  1  0  0  0  0
 15 16  1  0  0  0  0
 15 17  1  0  0  0  0
 15 22  1  0  0  0  0
 18 19  1  0  0  0  0
 18 49  2  0  0  0  0
 20 21  1  0  0  0  0
 20 51  2  0  0  0  0
 22 23  1  0  0  0  0
 22 24  1  0  0  0  0
 22 43  1  0  0  0  0
 25 26  1  0  0  0  0
 25 27  1  0  0  0  0
 25 28  1  0  0  0  0
 25 53  1  0  0  0  0
 28 29  1  0  0  0  0
 28 30  1  0  0  0  0
 28 40  1  0  0  0  0
 31 32  1  0  0  0  0
 31 33  1  0  0  0  0
 31 34  1  0  0  0  0
 31 46  1  0  0  0  0
 34 35  1  0  0  0  0
 34 36  1  0  0  0  0
 34 37  1  0  0  0  0
 37 38  1  0  0  0  0
 37 39  1  0  0  0  0
 37 40  1  0  0  0  0
 40 41  1  0  0  0  0
 40 42  1  0  0  0  0
 43 44  1  0  0  0  0
 43 45  1  0  0  0  0
 43 46  1  0  0  0  0
 46 47  1  0  0  0  0
 46 48  1  0  0  0  0
 49 50  1  0  0  0  0
 49 51  1  0  0  0  0
 51 52  1  0  0  0  0
 53 54  1  0  0  0  0
 53 55  1  0  0  0  0
 53 56  1  0  0  0  0
M  CHG  1  14  -1
M  END
>  <IDNUMBER>
AK-693/21159006

>  <NAME>
Embelin, derivative of

>  <ADD_INFO>
http://www.specs.net/enter.php?specsid=AK-693/21159006

>  <H_ACCEPTORS>
4

>  <H_DONORS>
2

>  <ROTATABLE_BONDS>
10

>  <LOGP>
6.48

>  <LOGS>
-7.6500001

>  <TPSA>
91.699997

>  <PRICE>
N09

$$$$
AK-693/21159009
  MOE2011           3D

 34 36  0  0  0  0  0  0  0  0999 V2000
   -0.2480   -0.4610    0.0140 C   0  0  0  0  0  0  0  0  0  0  0  0
    0.9680   -1.1570   -0.1400 C   0  0  0  0  0  0  0  0  0  0  0  0
    2.1910   -0.4620   -0.1290 C   0  0  0  0  0  0  0  0  0  0  0  0
   -0.2280    0.9240    0.2230 C   0  0  0  0  0  0  0  0  0  0  0  0
   -1.5730   -1.1300   -0.0190 C   0  0  0  0  0  0  0  0  0  0  0  0
    2.1730    0.9120    0.1030 C   0  0  0  0  0  0  0  0  0  0  0  0
    3.4850   -1.0980   -0.3540 C   0  0  0  0  0  0  0  0  0  0  0  0
    3.5180   -2.1620   -0.5650 H   0  0  0  0  0  0  0  0  0  0  0  0
   -1.3400    1.7050    0.3810 O   0  0  0  0  0  0  0  0  0  0  0  0
    3.3650    1.6630    0.1500 O   0  0  0  0  0  0  0  0  0  0  0  0
    0.9840    1.6090    0.2910 C   0  0  0  0  0  0  0  0  0  0  0  0
    0.9980    2.6820    0.4640 H   0  0  0  0  0  0  0  0  0  0  0  0
    4.6050    1.0700   -0.0450 C   0  0  0  0  0  0  0  0  0  0  0  0
   -2.7520   -0.2890    0.3870 C   0  0  0  0  0  0  0  0  0  0  0  0
   -3.6650   -0.7260   -0.0330 H   0  0  0  0  0  0  0  0  0  0  0  0
   -2.8150   -0.3420    1.4810 H   0  0  0  0  0  0  0  0  0  0  0  0
   -2.5760    1.1500   -0.0910 C   0  0  0  0  0  0  0  0  0  0  0  0
    4.6100   -0.3780   -0.3130 C   0  0  0  0  0  0  0  0  0  0  0  0
    5.5800   -0.8310   -0.4800 H   0  0  0  0  0  0  0  0  0  0  0  0
   -1.7160   -2.3130   -0.3050 O   0  0  0  0  0  0  0  0  0  0  0  0
    5.6520    1.7060   -0.0030 O   0  0  0  0  0  0  0  0  0  0  0  0
    0.9900   -2.5110   -0.3700 O   0  0  0  0  0  0  0  0  0  0  0  0
   -3.6820    2.0150    0.5320 C   0  0  0  0  0  0  0  0  0  0  0  0
   -4.6790    1.6770    0.2310 H   0  0  0  0  0  0  0  0  0  0  0  0
   -3.5690    3.0660    0.2380 H   0  0  0  0  0  0  0  0  0  0  0  0
   -3.6240    1.9950    1.6260 H   0  0  0  0  0  0  0  0  0  0  0  0
   -2.6610    1.2820   -1.6210 C   0  0  0  0  0  0  0  0  0  0  0  0
   -3.6290    0.9370   -1.9980 H   0  0  0  0  0  0  0  0  0  0  0  0
   -1.8760    0.7120   -2.1280 H   0  0  0  0  0  0  0  0  0  0  0  0
   -2.5220    2.3260   -1.9250 H   0  0  0  0  0  0  0  0  0  0  0  0
    1.0040   -3.2340    0.8640 C   0  0  0  0  0  0  0  0  0  0  0  0
    0.9100   -4.2980    0.6280 H   0  0  0  0  0  0  0  0  0  0  0  0
    0.1700   -2.9540    1.5150 H   0  0  0  0  0  0  0  0  0  0  0  0
    1.9540   -3.0850    1.3900 H   0  0  0  0  0  0  0  0  0  0  0  0
  1  2  2  0  0  0  0
  1  4  1  0  0  0  0
  1  5  1  0  0  0  0
  2  3  1  0  0  0  0
  2 22  1  0  0  0  0
  3  6  2  0  0  0  0
  3  7  1  0  0  0  0
  4  9  1  0  0  0  0
  4 11  2  0  0  0  0
  5 14  1  0  0  0  0
  5 20  2  0  0  0  0
  6 10  1  0  0  0  0
  6 11  1  0  0  0  0
  7  8  1  0  0  0  0
  7 18  2  0  0  0  0
  9 17  1  0  0  0  0
 10 13  1  0  0  0  0
 11 12  1  0  0  0  0
 13 18  1  0  0  0  0
 13 21  2  0  0  0  0
 14 15  1  0  0  0  0
 14 16  1  0  0  0  0
 14 17  1  0  0  0  0
 17 23  1  0  0  0  0
 17 27  1  0  0  0  0
 18 19  1  0  0  0  0
 22 31  1  0  0  0  0
 23 24  1  0  0  0  0
 23 25  1  0  0  0  0
 23 26  1  0  0  0  0
 27 28  1  0  0  0  0
 27 29  1  0  0  0  0
 27 30  1  0  0  0  0
 31 32  1  0  0  0  0
 31 33  1  0  0  0  0
 31 34  1  0  0  0  0
M  END
>  <IDNUMBER>
AK-693/21159009

>  <NAME>
O-Methylclausenin

>  <ADD_INFO>
http://www.specs.net/enter.php?specsid=AK-693/21159009

>  <H_ACCEPTORS>
2

>  <H_DONORS>
0

>  <ROTATABLE_BONDS>
1

>  <LOGP>
2.1099999

>  <LOGS>
-3.01

>  <TPSA>
61.830002

>  <PRICE>
N07

$$$$
AK-693/21159014
  MOE2011           3D

 53 57  0  0  1  0  0  0  0  0999 V2000
   -0.8470    0.3270   -0.3920 C   0  0  1  0  0  0  0  0  0  0  0  0
    0.0150    1.0850    0.6250 C   0  0  0  0  0  0  0  0  0  0  0  0
    0.0490   -0.5400   -1.3370 C   0  0  2  0  0  0  0  0  0  0  0  0
   -0.7360   -1.5830   -2.1040 C   0  0  0  0  0  0  0  0  0  0  0  0
   -0.2130   -2.1050   -2.9030 H   0  0  0  0  0  0  0  0  0  0  0  0
    0.6210    2.2500    0.1980 N   0  0  0  0  0  0  0  0  0  0  0  0
    1.2730   -1.1700   -0.6730 C   0  0  0  0  0  0  0  0  0  0  0  0
   -1.9600   -0.5190    0.2800 C   0  0  2  0  0  0  0  0  0  0  0  0
   -2.0210   -1.8820   -1.8650 C   0  0  0  0  0  0  0  0  0  0  0  0
   -2.5170   -2.6200   -2.4920 H   0  0  0  0  0  0  0  0  0  0  0  0
    3.6320   -1.1600   -0.2510 C   0  0  0  0  0  0  0  0  0  0  0  0
    2.5420   -0.5940   -0.8790 C   0  0  0  0  0  0  0  0  0  0  0  0
    2.6740    0.2810   -1.5070 H   0  0  0  0  0  0  0  0  0  0  0  0
    3.5090   -2.2620    0.5600 C   0  0  0  0  0  0  0  0  0  0  0  0
    4.9170   -0.7230   -0.3430 O   0  0  0  0  0  0  0  0  0  0  0  0
   -2.8350   -1.2010   -0.8020 C   0  0  1  0  0  0  0  0  0  0  0  0
    0.1880    0.6480    1.7660 O   0  0  0  0  0  0  0  0  0  0  0  0
    4.7020   -2.6590    1.0800 O   0  0  0  0  0  0  0  0  0  0  0  0
    5.5880   -1.6740    0.5090 C   0  0  0  0  0  0  0  0  0  0  0  0
    6.3550   -2.1920   -0.0800 H   0  0  0  0  0  0  0  0  0  0  0  0
    6.0790   -1.1290    1.3240 H   0  0  0  0  0  0  0  0  0  0  0  0
    1.1660   -2.3070    0.1650 C   0  0  0  0  0  0  0  0  0  0  0  0
    0.1970   -2.7700    0.3390 H   0  0  0  0  0  0  0  0  0  0  0  0
    2.2900   -2.8600    0.7870 C   0  0  0  0  0  0  0  0  0  0  0  0
    2.2040   -3.7280    1.4300 H   0  0  0  0  0  0  0  0  0  0  0  0
    1.5530    2.9590    1.0610 C   0  0  0  0  0  0  0  0  0  0  0  0
    0.9710    3.4620    1.8410 H   0  0  0  0  0  0  0  0  0  0  0  0
    2.2570    2.2670    1.5340 H   0  0  0  0  0  0  0  0  0  0  0  0
    0.4560    2.9420   -1.0740 C   0  0  0  0  0  0  0  0  0  0  0  0
    0.9610    2.3590   -1.8490 H   0  0  0  0  0  0  0  0  0  0  0  0
   -0.6000    3.0530   -1.3310 H   0  0  0  0  0  0  0  0  0  0  0  0
   -2.8850    0.2980    1.2030 C   0  0  0  0  0  0  0  0  0  0  0  0
   -2.3170    0.7990    1.9920 H   0  0  0  0  0  0  0  0  0  0  0  0
   -3.3890    1.0850    0.6280 H   0  0  0  0  0  0  0  0  0  0  0  0
   -3.8320   -2.1590   -0.1350 C   0  0  0  0  0  0  0  0  0  0  0  0
   -4.4600   -2.6470   -0.8910 H   0  0  0  0  0  0  0  0  0  0  0  0
   -3.2960   -2.9570    0.3940 H   0  0  0  0  0  0  0  0  0  0  0  0
    2.2350    3.9610    0.1420 C   0  0  0  0  0  0  0  0  0  0  0  0
    2.6020    4.8410    0.6760 H   0  0  0  0  0  0  0  0  0  0  0  0
    3.0810    3.4870   -0.3690 H   0  0  0  0  0  0  0  0  0  0  0  0
    1.1420    4.2870   -0.8670 C   0  0  0  0  0  0  0  0  0  0  0  0
    1.5300    4.7090   -1.7980 H   0  0  0  0  0  0  0  0  0  0  0  0
    0.4370    5.0050   -0.4310 H   0  0  0  0  0  0  0  0  0  0  0  0
   -3.9300   -0.6040    1.8650 C   0  0  0  0  0  0  0  0  0  0  0  0
   -3.4250   -1.2940    2.5520 H   0  0  0  0  0  0  0  0  0  0  0  0
   -4.6100    0.0050    2.4710 H   0  0  0  0  0  0  0  0  0  0  0  0
   -4.7320   -1.4080    0.8460 C   0  0  0  0  0  0  0  0  0  0  0  0
   -5.3870   -0.7280    0.2860 H   0  0  0  0  0  0  0  0  0  0  0  0
   -5.3850   -2.1180    1.3670 H   0  0  0  0  0  0  0  0  0  0  0  0
    0.4290    0.1420   -2.1100 H   0  0  0  0  0  0  0  0  0  0  0  0
   -1.4840   -1.2910    0.8990 H   0  0  0  0  0  0  0  0  0  0  0  0
   -3.4210   -0.4280   -1.3230 H   0  0  0  0  0  0  0  0  0  0  0  0
   -1.3710    1.0640   -1.0130 H   0  0  0  0  0  0  0  0  0  0  0  0
  1  2  1  0  0  0  0
  1  3  1  0  0  0  0
  1  8  1  0  0  0  0
  1 53  1  0  0  0  0
  2  6  1  0  0  0  0
  2 17  2  0  0  0  0
  3  4  1  0  0  0  0
  3  7  1  0  0  0  0
  3 50  1  0  0  0  0
  4  5  1  0  0  0  0
  4  9  2  0  0  0  0
  6 26  1  0  0  0  0
  6 29  1  0  0  0  0
  7 12  1  0  0  0  0
  7 22  2  0  0  0  0
  8 16  1  0  0  0  0
  8 32  1  0  0  0  0
  8 51  1  0  0  0  0
  9 10  1  0  0  0  0
  9 16  1  0  0  0  0
 11 12  2  0  0  0  0
 11 14  1  0  0  0  0
 11 15  1  0  0  0  0
 12 13  1  0  0  0  0
 14 18  1  0  0  0  0
 14 24  2  0  0  0  0
 15 19  1  0  0  0  0
 16 35  1  0  0  0  0
 16 52  1  0  0  0  0
 18 19  1  0  0  0  0
 19 20  1  0  0  0  0
 19 21  1  0  0  0  0
 22 23  1  0  0  0  0
 22 24  1  0  0  0  0
 24 25  1  0  0  0  0
 26 27  1  0  0  0  0
 26 28  1  0  0  0  0
 26 38  1  0  0  0  0
 29 30  1  0  0  0  0
 29 31  1  0  0  0  0
 29 41  1  0  0  0  0
 32 33  1  0  0  0  0
 32 34  1  0  0  0  0
 32 44  1  0  0  0  0
 35 36  1  0  0  0  0
 35 37  1  0  0  0  0
 35 47  1  0  0  0  0
 38 39  1  0  0  0  0
 38 40  1  0  0  0  0
 38 41  1  0  0  0  0
 41 42  1  0  0  0  0
 41 43  1  0  0  0  0
 44 45  1  0  0  0  0
 44 46  1  0  0  0  0
 44 47  1  0  0  0  0
 47 48  1  0  0  0  0
 47 49  1  0  0  0  0
M  END
>  <IDNUMBER>
AK-693/21159014

>  <NAME>
Cyclostachnine

>  <ADD_INFO>
http://www.specs.net/enter.php?specsid=AK-693/21159014

>  <H_ACCEPTORS>
2

>  <H_DONORS>
0

>  <ROTATABLE_BONDS>
3

>  <LOGP>
5.1599998

>  <LOGS>
-6.1799998

>  <TPSA>
38.77

>  <PRICE>
N07

$$$$
AK-693/21159018
  MOE2011           3D

 52 56  0  0  1  0  0  0  0  0999 V2000
   -0.6330    0.3610    0.8990 C   0  0  2  0  0  0  0  0  0  0  0  0
    0.8330    0.2750    0.7020 C   0  0  0  0  0  0  0  0  0  0  0  0
    1.4350    0.6000   -0.5450 C   0  0  0  0  0  0  0  0  0  0  0  0
    1.7920   -0.1060    1.5870 N   0  0  0  0  0  0  0  0  0  0  0  0
    1.6460   -0.3770    2.5510 H   0  0  0  0  0  0  0  0  0  0  0  0
   -1.6410    0.4460   -1.1730 N   0  3  2  0  0  0  0  0  0  0  0  0
   -1.4420    1.4060   -0.8480 H   0  0  0  0  0  0  0  0  0  0  0  0
   -0.9950   -0.5530   -0.3180 C   0  0  3  0  0  0  0  0  0  0  0  0
   -0.6540    1.9550    1.0950 C   0  0  0  0  0  0  0  0  0  0  0  0
    2.8370    0.3750   -0.3510 C   0  0  0  0  0  0  0  0  0  0  0  0
    3.0230   -0.0660    0.9670 C   0  0  0  0  0  0  0  0  0  0  0  0
   -1.8320   -1.8810   -0.1540 C   0  0  2  0  0  0  0  0  0  0  0  0
   -1.8360    0.0790    1.7750 C   0  0  0  0  0  0  0  0  0  0  0  0
   -1.6860   -0.8060    2.4050 H   0  0  0  0  0  0  0  0  0  0  0  0
   -2.0970    0.8770    2.4830 H   0  0  0  0  0  0  0  0  0  0  0  0
    0.7330    1.1180   -1.8830 C   0  0  0  0  0  0  0  0  0  0  0  0
    1.4120    0.9040   -2.7180 H   0  0  0  0  0  0  0  0  0  0  0  0
    0.6990    2.2110   -1.7890 H   0  0  0  0  0  0  0  0  0  0  0  0
   -3.0790    0.5090   -0.7410 C   0  0  0  0  0  0  0  0  0  0  0  0
   -3.4020    1.5550   -0.7500 H   0  0  0  0  0  0  0  0  0  0  0  0
   -3.6770   -0.0670   -1.4550 H   0  0  0  0  0  0  0  0  0  0  0  0
   -3.1440   -0.1010    0.7770 C   0  0  3  0  0  0  0  0  0  0  0  0
   -0.7520    0.6330   -2.3660 C   0  0  0  0  0  0  0  0  0  0  0  0
   -0.7000   -0.3200   -2.9040 H   0  0  0  0  0  0  0  0  0  0  0  0
   -1.2030    1.3940   -3.0110 H   0  0  0  0  0  0  0  0  0  0  0  0
   -3.1610   -1.6020    0.5450 C   0  0  0  0  0  0  0  0  0  0  0  0
   -4.0060   -1.9010   -0.0870 H   0  0  0  0  0  0  0  0  0  0  0  0
   -3.2710   -2.1490    1.4890 H   0  0  0  0  0  0  0  0  0  0  0  0
   -0.2460    2.5200    2.1050 O   0  0  0  0  0  0  0  0  0  0  0  0
   -1.2000    2.6020    0.0250 O   0  0  0  0  0  0  0  0  0  0  0  0
   -1.0680   -3.0120    0.5680 C   0  0  0  0  0  0  0  0  0  0  0  0
   -0.7410   -2.6880    1.5620 H   0  0  0  0  0  0  0  0  0  0  0  0
   -1.7530   -3.8560    0.7230 H   0  0  0  0  0  0  0  0  0  0  0  0
    3.9710    0.5070   -1.1810 C   0  0  0  0  0  0  0  0  0  0  0  0
    3.8710    0.8490   -2.2060 H   0  0  0  0  0  0  0  0  0  0  0  0
    4.2870   -0.3810    1.4820 C   0  0  0  0  0  0  0  0  0  0  0  0
    4.4150   -0.7190    2.5060 H   0  0  0  0  0  0  0  0  0  0  0  0
   -1.2510    4.0290    0.1650 C   0  0  0  0  0  0  0  0  0  0  0  0
   -1.6960    4.4390   -0.7450 H   0  0  0  0  0  0  0  0  0  0  0  0
   -0.2410    4.4370    0.2750 H   0  0  0  0  0  0  0  0  0  0  0  0
   -1.8810    4.3050    1.0170 H   0  0  0  0  0  0  0  0  0  0  0  0
    0.1390   -3.5320   -0.2010 C   0  0  0  0  0  0  0  0  0  0  0  0
    0.9400   -2.7900   -0.2510 H   0  0  0  0  0  0  0  0  0  0  0  0
   -0.1360   -3.8180   -1.2210 H   0  0  0  0  0  0  0  0  0  0  0  0
    0.5460   -4.4170    0.2990 H   0  0  0  0  0  0  0  0  0  0  0  0
    5.2380    0.1930   -0.6770 C   0  0  0  0  0  0  0  0  0  0  0  0
    6.1120    0.2940   -1.3170 H   0  0  0  0  0  0  0  0  0  0  0  0
    5.3910   -0.2450    0.6350 C   0  0  0  0  0  0  0  0  0  0  0  0
    6.3840   -0.4830    1.0100 H   0  0  0  0  0  0  0  0  0  0  0  0
   -0.1510   -0.9740   -0.8750 H   0  0  0  0  0  0  0  0  0  0  0  0
   -2.0660   -2.2480   -1.1640 H   0  0  0  0  0  0  0  0  0  0  0  0
   -4.0610    0.2180    1.2820 H   0  0  0  0  0  0  0  0  0  0  0  0
  1  2  1  0  0  0  0
  1  8  1  0  0  0  0
  1  9  1  0  0  0  0
  1 13  1  0  0  0  0
  2  3  2  0  0  0  0
  2  4  1  0  0  0  0
  3 10  1  0  0  0  0
  3 16  1  0  0  0  0
  4  5  1  0  0  0  0
  4 11  1  0  0  0  0
  6  7  1  0  0  0  0
  6  8  1  0  0  0  0
  6 19  1  0  0  0  0
  6 23  1  0  0  0  0
  8 12  1  0  0  0  0
  8 50  1  0  0  0  0
  9 29  2  0  0  0  0
  9 30  1  0  0  0  0
 10 11  2  0  0  0  0
 10 34  1  0  0  0  0
 11 36  1  0  0  0  0
 12 26  1  0  0  0  0
 12 31  1  0  0  0  0
 12 51  1  0  0  0  0
 13 14  1  0  0  0  0
 13 15  1  0  0  0  0
 13 22  1  0  0  0  0
 16 17  1  0  0  0  0
 16 18  1  0  0  0  0
 16 23  1  0  0  0  0
 19 20  1  0  0  0  0
 19 21  1  0  0  0  0
 19 22  1  0  0  0  0
 22 26  1  0  0  0  0
 22 52  1  0  0  0  0
 23 24  1  0  0  0  0
 23 25  1  0  0  0  0
 26 27  1  0  0  0  0
 26 28  1  0  0  0  0
 30 38  1  0  0  0  0
 31 32  1  0  0  0  0
 31 33  1  0  0  0  0
 31 42  1  0  0  0  0
 34 35  1  0  0  0  0
 34 46  2  0  0  0  0
 36 37  1  0  0  0  0
 36 48  2  0  0  0  0
 38 39  1  0  0  0  0
 38 40  1  0  0  0  0
 38 41  1  0  0  0  0
 42 43  1  0  0  0  0
 42 44  1  0  0  0  0
 42 45  1  0  0  0  0
 46 47  1  0  0  0  0
 46 48  1  0  0  0  0
 48 49  1  0  0  0  0
M  CHG  1   6   1
M  END
>  <IDNUMBER>
AK-693/21159018

>  <NAME>
Coronaridine

>  <ADD_INFO>
http://www.specs.net/enter.php?specsid=AK-693/21159018

>  <H_ACCEPTORS>
4

>  <H_DONORS>
1

>  <ROTATABLE_BONDS>
3

>  <LOGP>
3.6199999

>  <LOGS>
-3.76

>  <TPSA>
45.330002

>  <PRICE>
N07

>  <SALTDATA>
HCl

>  <STEREOCHEM>
(-)-isomer

$$$$
AK-693/21159019
  MOE2011           3D

 80 84  0  0  1  0  0  0  0  0999 V2000
   -1.1080    0.9160   -0.5400 C   0  0  1  0  0  0  0  0  0  0  0  0
    0.3630    1.0520    0.1530 C   0  0  1  0  0  0  0  0  0  0  0  0
    2.5800   -0.4560    0.5800 C   0  0  2  0  0  0  0  0  0  0  0  0
   -4.1060    1.1860   -0.1390 C   0  0  1  0  0  0  0  0  0  0  0  0
   -3.4210   -0.1930   -0.2300 C   0  0  1  0  0  0  0  0  0  0  0  0
   -1.9660   -0.1270    0.2880 C   0  0  1  0  0  0  0  0  0  0  0  0
    1.0330   -0.3810    0.2010 C   0  0  3  0  0  0  0  0  0  0  0  0
    3.3540    0.5780   -0.3090 C   0  0  2  0  0  0  0  0  0  0  0  0
    4.9310    0.5400   -0.1920 C   0  0  0  0  0  0  0  0  0  0  0  0
   -4.4440   -1.1560    0.4180 C   0  0  1  0  0  0  0  0  0  0  0  0
   -4.3480    1.8880    1.2440 C   0  0  0  0  0  0  0  0  0  0  0  0
   -1.8760    2.2830   -0.5930 C   0  0  0  0  0  0  0  0  0  0  0  0
   -1.8780    2.7620    0.3890 H   0  0  0  0  0  0  0  0  0  0  0  0
   -1.3630    2.9770   -1.2690 H   0  0  0  0  0  0  0  0  0  0  0  0
    1.2850    2.0080   -0.6510 C   0  0  0  0  0  0  0  0  0  0  0  0
    1.2820    1.7470   -1.7130 H   0  0  0  0  0  0  0  0  0  0  0  0
    0.9120    3.0380   -0.5890 H   0  0  0  0  0  0  0  0  0  0  0  0
   -3.3510    2.1760   -1.0340 C   0  0  0  0  0  0  0  0  0  0  0  0
   -3.4080    1.8640   -2.0830 H   0  0  0  0  0  0  0  0  0  0  0  0
   -3.8010    3.1760   -1.0110 H   0  0  0  0  0  0  0  0  0  0  0  0
   -5.5180    0.8240   -0.6150 C   0  0  0  0  0  0  0  0  0  0  0  0
   -6.2870    1.5700   -0.3880 H   0  0  0  0  0  0  0  0  0  0  0  0
   -5.5300    0.6690   -1.7010 H   0  0  0  0  0  0  0  0  0  0  0  0
   -1.2710   -1.4900    0.3780 C   0  0  0  0  0  0  0  0  0  0  0  0
   -1.8420   -2.1560    1.0320 H   0  0  0  0  0  0  0  0  0  0  0  0
   -1.2330   -1.9730   -0.6050 H   0  0  0  0  0  0  0  0  0  0  0  0
    3.1010   -1.8980    0.2310 C   0  0  0  0  0  0  0  0  0  0  0  0
    3.1610   -2.5050    1.1440 H   0  0  0  0  0  0  0  0  0  0  0  0
    2.3880   -2.4260   -0.4140 H   0  0  0  0  0  0  0  0  0  0  0  0
    0.1410   -1.3880    0.9620 C   0  0  0  0  0  0  0  0  0  0  0  0
    0.5820   -2.3900    0.9450 H   0  0  0  0  0  0  0  0  0  0  0  0
    0.0590   -1.1140    2.0180 H   0  0  0  0  0  0  0  0  0  0  0  0
    2.7510    1.9930   -0.2080 C   0  0  0  0  0  0  0  0  0  0  0  0
    2.8520    2.4010    0.8020 H   0  0  0  0  0  0  0  0  0  0  0  0
    3.2950    2.6830   -0.8630 H   0  0  0  0  0  0  0  0  0  0  0  0
   -5.8160   -0.5090    0.0910 C   0  0  0  0  0  0  0  0  0  0  0  0
   -6.4680   -1.1340   -0.5280 H   0  0  0  0  0  0  0  0  0  0  0  0
   -6.3570   -0.3220    1.0280 H   0  0  0  0  0  0  0  0  0  0  0  0
   -4.3900   -2.6130   -0.0240 C   0  0  0  0  0  0  0  0  0  0  0  0
    5.4530   -0.9210   -0.0010 C   0  0  2  0  0  0  0  0  0  0  0  0
   -4.8610    3.0440    1.1900 O   0  0  0  0  0  0  0  0  0  0  0  0
    4.4500   -1.9580   -0.4950 C   0  0  0  0  0  0  0  0  0  0  0  0
    4.2870   -1.8240   -1.5720 H   0  0  0  0  0  0  0  0  0  0  0  0
    4.8610   -2.9670   -0.3670 H   0  0  0  0  0  0  0  0  0  0  0  0
   -4.3980   -3.6060    0.8820 C   0  0  0  0  0  0  0  0  0  0  0  0
   -4.4330   -3.3980    1.9470 H   0  0  0  0  0  0  0  0  0  0  0  0
   -4.3660   -4.6490    0.5850 H   0  0  0  0  0  0  0  0  0  0  0  0
   -0.9780    0.4490   -2.0310 C   0  0  0  0  0  0  0  0  0  0  0  0
   -1.9450    0.3090   -2.5190 H   0  0  0  0  0  0  0  0  0  0  0  0
   -0.4520   -0.4990   -2.1480 H   0  0  0  0  0  0  0  0  0  0  0  0
   -0.4600    1.1940   -2.6420 H   0  0  0  0  0  0  0  0  0  0  0  0
   -4.0190    1.2270    2.2680 O   0  5  0  0  0  0  0  0  0  0  0  0
    0.2160    1.6660    1.5770 C   0  0  0  0  0  0  0  0  0  0  0  0
    1.1710    1.8290    2.0710 H   0  0  0  0  0  0  0  0  0  0  0  0
   -0.3790    1.0540    2.2570 H   0  0  0  0  0  0  0  0  0  0  0  0
   -0.2380    2.6610    1.5460 H   0  0  0  0  0  0  0  0  0  0  0  0
    2.8150   -0.2360    2.0920 C   0  0  0  0  0  0  0  0  0  0  0  0
    2.0560   -0.7300    2.7050 H   0  0  0  0  0  0  0  0  0  0  0  0
    2.8410    0.8150    2.3750 H   0  0  0  0  0  0  0  0  0  0  0  0
    3.7670   -0.6520    2.4280 H   0  0  0  0  0  0  0  0  0  0  0  0
    5.4890    1.4760    0.9010 C   0  0  0  0  0  0  0  0  0  0  0  0
    5.2650    2.5270    0.6900 H   0  0  0  0  0  0  0  0  0  0  0  0
    6.5810    1.3930    0.9620 H   0  0  0  0  0  0  0  0  0  0  0  0
    5.0900    1.2470    1.8920 H   0  0  0  0  0  0  0  0  0  0  0  0
    5.5150    1.0520   -1.5420 C   0  0  0  0  0  0  0  0  0  0  0  0
    5.2120    2.0810   -1.7560 H   0  0  0  0  0  0  0  0  0  0  0  0
    5.1900    0.4260   -2.3810 H   0  0  0  0  0  0  0  0  0  0  0  0
    6.6110    1.0380   -1.5260 H   0  0  0  0  0  0  0  0  0  0  0  0
    5.7820   -1.1990    1.3570 O   0  0  0  0  0  0  0  0  0  0  0  0
    6.1170   -2.1110    1.4000 H   0  0  0  0  0  0  0  0  0  0  0  0
   -4.3530   -2.9250   -1.4960 C   0  0  0  0  0  0  0  0  0  0  0  0
   -5.1540   -2.4020   -2.0290 H   0  0  0  0  0  0  0  0  0  0  0  0
   -4.4830   -3.9950   -1.6890 H   0  0  0  0  0  0  0  0  0  0  0  0
   -3.3930   -2.6310   -1.9320 H   0  0  0  0  0  0  0  0  0  0  0  0
   -3.3750   -0.4720   -1.2890 H   0  0  0  0  0  0  0  0  0  0  0  0
   -2.0280    0.2350    1.3180 H   0  0  0  0  0  0  0  0  0  0  0  0
    3.1400    0.2650   -1.3450 H   0  0  0  0  0  0  0  0  0  0  0  0
    1.0350   -0.7330   -0.8380 H   0  0  0  0  0  0  0  0  0  0  0  0
   -4.3080   -1.1250    1.5070 H   0  0  0  0  0  0  0  0  0  0  0  0
    6.3890   -1.0530   -0.5570 H   0  0  0  0  0  0  0  0  0  0  0  0
  1  2  1  0  0  0  0
  1  6  1  0  0  0  0
  1 12  1  0  0  0  0
  1 48  1  0  0  0  0
  2  7  1  0  0  0  0
  2 15  1  0  0  0  0
  2 53  1  0  0  0  0
  3  7  1  0  0  0  0
  3  8  1  0  0  0  0
  3 27  1  0  0  0  0
  3 57  1  0  0  0  0
  4  5  1  0  0  0  0
  4 11  1  0  0  0  0
  4 18  1  0  0  0  0
  4 21  1  0  0  0  0
  5  6  1  0  0  0  0
  5 10  1  0  0  0  0
  5 75  1  0  0  0  0
  6 24  1  0  0  0  0
  6 76  1  0  0  0  0
  7 30  1  0  0  0  0
  7 78  1  0  0  0  0
  8  9  1  0  0  0  0
  8 33  1  0  0  0  0
  8 77  1  0  0  0  0
  9 40  1  0  0  0  0
  9 61  1  0  0  0  0
  9 65  1  0  0  0  0
 10 36  1  0  0  0  0
 10 39  1  0  0  0  0
 10 79  1  0  0  0  0
 11 41  2  0  0  0  0
 11 52  1  0  0  0  0
 12 13  1  0  0  0  0
 12 14  1  0  0  0  0
 12 18  1  0  0  0  0
 15 16  1  0  0  0  0
 15 17  1  0  0  0  0
 15 33  1  0  0  0  0
 18 19  1  0  0  0  0
 18 20  1  0  0  0  0
 21 22  1  0  0  0  0
 21 23  1  0  0  0  0
 21 36  1  0  0  0  0
 24 25  1  0  0  0  0
 24 26  1  0  0  0  0
 24 30  1  0  0  0  0
 27 28  1  0  0  0  0
 27 29  1  0  0  0  0
 27 42  1  0  0  0  0
 30 31  1  0  0  0  0
 30 32  1  0  0  0  0
 33 34  1  0  0  0  0
 33 35  1  0  0  0  0
 36 37  1  0  0  0  0
 36 38  1  0  0  0  0
 39 45  2  0  0  0  0
 39 71  1  0  0  0  0
 40 42  1  0  0  0  0
 40 69  1  0  0  0  0
 40 80  1  0  0  0  0
 42 43  1  0  0  0  0
 42 44  1  0  0  0  0
 45 46  1  0  0  0  0
 45 47  1  0  0  0  0
 48 49  1  0  0  0  0
 48 50  1  0  0  0  0
 48 51  1  0  0  0  0
 53 54  1  0  0  0  0
 53 55  1  0  0  0  0
 53 56  1  0  0  0  0
 57 58  1  0  0  0  0
 57 59  1  0  0  0  0
 57 60  1  0  0  0  0
 61 62  1  0  0  0  0
 61 63  1  0  0  0  0
 61 64  1  0  0  0  0
 65 66  1  0  0  0  0
 65 67  1  0  0  0  0
 65 68  1  0  0  0  0
 69 70  1  0  0  0  0
 71 72  1  0  0  0  0
 71 73  1  0  0  0  0
 71 74  1  0  0  0  0
M  CHG  1  52  -1
M  END
>  <IDNUMBER>
AK-693/21159019

>  <NAME>
Betulinic acid (Mairin; Gratiolone; Platanol)

>  <ADD_INFO>
http://www.specs.net/enter.php?specsid=AK-693/21159019

>  <H_ACCEPTORS>
3

>  <H_DONORS>
2

>  <ROTATABLE_BONDS>
2

>  <LOGP>
8

>  <LOGS>
-8.4499998

>  <TPSA>
57.529999

>  <PRICE>
N08

$$$$
AK-693/21159020
  MOE2011           3D

 40 42  0  0  1  0  0  0  0  0999 V2000
    0.3740   -1.1960    0.3880 C   0  0  2  0  0  0  0  0  0  0  0  0
    0.8010   -1.1590   -0.9840 O   0  0  0  0  0  0  0  0  0  0  0  0
   -0.9780   -0.4970    0.5830 C   0  0  3  0  0  0  0  0  0  0  0  0
    2.1640   -1.1050   -1.0470 C   0  0  0  0  0  0  0  0  0  0  0  0
   -1.1730    0.8650   -0.0710 C   0  0  0  0  0  0  0  0  0  0  0  0
    1.5420   -0.6250    1.1840 C   0  0  3  0  0  0  0  0  0  0  0  0
    2.7300   -1.1080    0.3480 C   0  0  3  0  0  0  0  0  0  0  0  0
   -2.1860   -1.3180    0.0580 C   0  0  3  0  0  0  0  0  0  0  0  0
   -0.2470    1.8310   -0.2480 C   0  0  0  0  0  0  0  0  0  0  0  0
   -2.6040    0.9690   -0.5600 C   0  0  0  0  0  0  0  0  0  0  0  0
   -3.1000    1.8790   -0.2090 H   0  0  0  0  0  0  0  0  0  0  0  0
   -2.6330    0.9420   -1.6550 H   0  0  0  0  0  0  0  0  0  0  0  0
    1.4630    0.8820    1.4710 C   0  0  0  0  0  0  0  0  0  0  0  0
    0.7040    1.0550    2.2460 H   0  0  0  0  0  0  0  0  0  0  0  0
    2.4050    1.2030    1.9340 H   0  0  0  0  0  0  0  0  0  0  0  0
    2.8030   -1.0920   -2.0860 O   0  0  0  0  0  0  0  0  0  0  0  0
    1.1700    1.8020    0.2850 C   0  0  0  0  0  0  0  0  0  0  0  0
    1.8580    1.6060   -0.5440 H   0  0  0  0  0  0  0  0  0  0  0  0
    1.4070    2.8170    0.6330 H   0  0  0  0  0  0  0  0  0  0  0  0
   -3.2910   -0.2620    0.0130 C   0  0  0  0  0  0  0  0  0  0  0  0
   -4.1540   -0.5700   -0.5870 H   0  0  0  0  0  0  0  0  0  0  0  0
   -3.6700   -0.0560    1.0230 H   0  0  0  0  0  0  0  0  0  0  0  0
   -2.5280   -2.3210    1.0140 O   0  0  0  0  0  0  0  0  0  0  0  0
   -3.3570   -2.7400    0.7230 H   0  0  0  0  0  0  0  0  0  0  0  0
    4.0240   -0.3260    0.4720 C   0  0  0  0  0  0  0  0  0  0  0  0
    4.3530   -0.2780    1.5150 H   0  0  0  0  0  0  0  0  0  0  0  0
    3.9350    0.6930    0.0840 H   0  0  0  0  0  0  0  0  0  0  0  0
    4.8180   -0.8120   -0.1060 H   0  0  0  0  0  0  0  0  0  0  0  0
   -0.5410    3.0970   -1.0220 C   0  0  0  0  0  0  0  0  0  0  0  0
    0.1950    3.2250   -1.8230 H   0  0  0  0  0  0  0  0  0  0  0  0
   -0.4860    3.9670   -0.3580 H   0  0  0  0  0  0  0  0  0  0  0  0
   -1.5280    3.1050   -1.4940 H   0  0  0  0  0  0  0  0  0  0  0  0
   -2.0050   -1.9980   -1.3030 C   0  0  0  0  0  0  0  0  0  0  0  0
   -1.6820   -1.3020   -2.0830 H   0  0  0  0  0  0  0  0  0  0  0  0
   -2.9460   -2.4550   -1.6290 H   0  0  0  0  0  0  0  0  0  0  0  0
   -1.2830   -2.8190   -1.2410 H   0  0  0  0  0  0  0  0  0  0  0  0
    0.2610   -2.2560    0.6510 H   0  0  0  0  0  0  0  0  0  0  0  0
   -1.1310   -0.3720    1.6660 H   0  0  0  0  0  0  0  0  0  0  0  0
    1.5810   -1.1130    2.1680 H   0  0  0  0  0  0  0  0  0  0  0  0
    2.9310   -2.1600    0.5950 H   0  0  0  0  0  0  0  0  0  0  0  0
  1  2  1  0  0  0  0
  1  3  1  0  0  0  0
  1  6  1  0  0  0  0
  1 37  1  0  0  0  0
  2  4  1  0  0  0  0
  3  5  1  0  0  0  0
  3  8  1  0  0  0  0
  3 38  1  0  0  0  0
  4  7  1  0  0  0  0
  4 16  2  0  0  0  0
  5  9  2  0  0  0  0
  5 10  1  0  0  0  0
  6  7  1  0  0  0  0
  6 13  1  0  0  0  0
  6 39  1  0  0  0  0
  7 25  1  0  0  0  0
  7 40  1  0  0  0  0
  8 20  1  0  0  0  0
  8 23  1  0  0  0  0
  8 33  1  0  0  0  0
  9 17  1  0  0  0  0
  9 29  1  0  0  0  0
 10 11  1  0  0  0  0
 10 12  1  0  0  0  0
 10 20  1  0  0  0  0
 13 14  1  0  0  0  0
 13 15  1  0  0  0  0
 13 17  1  0  0  0  0
 17 18  1  0  0  0  0
 17 19  1  0  0  0  0
 20 21  1  0  0  0  0
 20 22  1  0  0  0  0
 23 24  1  0  0  0  0
 25 26  1  0  0  0  0
 25 27  1  0  0  0  0
 25 28  1  0  0  0  0
 29 30  1  0  0  0  0
 29 31  1  0  0  0  0
 29 32  1  0  0  0  0
 33 34  1  0  0  0  0
 33 35  1  0  0  0  0
 33 36  1  0  0  0  0
M  END
>  <IDNUMBER>
AK-693/21159020

>  <NAME>
Parthenolide, derivative of

>  <ADD_INFO>
http://www.specs.net/enter.php?specsid=AK-693/21159020

>  <H_ACCEPTORS>
3

>  <H_DONORS>
1

>  <ROTATABLE_BONDS>
0

>  <LOGP>
3.73

>  <LOGS>
-3.71

>  <TPSA>
46.529999

>  <PRICE>
N08

$$$$
AK-693/21159021
  MOE2011           3D

 83 87  0  0  1  0  0  0  0  0999 V2000
    0.5010   -0.9710   -0.1060 C   0  0  1  0  0  0  0  0  0  0  0  0
    1.1850    0.4580   -0.1740 C   0  0  2  0  0  0  0  0  0  0  0  0
   -1.7690    0.1610    0.8010 C   0  0  2  0  0  0  0  0  0  0  0  0
   -4.1300   -0.8600   -0.0340 C   0  0  1  0  0  0  0  0  0  0  0  0
   -1.0780   -0.8300   -0.2100 C   0  0  2  0  0  0  0  0  0  0  0  0
   -3.2540    0.4290    0.2450 C   0  0  1  0  0  0  0  0  0  0  0  0
    2.7640    0.3080    0.0380 C   0  0  1  0  0  0  0  0  0  0  0  0
   -5.4200    0.7940   -1.5360 O   0  0  0  0  0  0  0  0  0  0  0  0
    3.4340   -0.8300   -0.8510 C   0  0  1  0  0  0  0  0  0  0  0  0
   -5.3720   -0.5510   -0.9900 C   0  0  2  0  0  0  0  0  0  0  0  0
    0.5540    1.3520    0.9360 C   0  0  0  0  0  0  0  0  0  0  0  0
    0.8200    0.9780    1.9300 H   0  0  0  0  0  0  0  0  0  0  0  0
    0.9730    2.3640    0.8950 H   0  0  0  0  0  0  0  0  0  0  0  0
   -0.9720    1.5000    0.8090 C   0  0  0  0  0  0  0  0  0  0  0  0
   -1.1950    2.0680   -0.1020 H   0  0  0  0  0  0  0  0  0  0  0  0
   -1.3130    2.1340    1.6380 H   0  0  0  0  0  0  0  0  0  0  0  0
   -3.2660   -1.9110   -0.8100 C   0  0  0  0  0  0  0  0  0  0  0  0
   -3.8000   -2.8690   -0.8600 H   0  0  0  0  0  0  0  0  0  0  0  0
   -3.1490   -1.5800   -1.8520 H   0  0  0  0  0  0  0  0  0  0  0  0
    1.0400   -1.8400   -1.2860 C   0  0  0  0  0  0  0  0  0  0  0  0
    1.0350   -2.8990   -0.9970 H   0  0  0  0  0  0  0  0  0  0  0  0
    0.3520   -1.7760   -2.1390 H   0  0  0  0  0  0  0  0  0  0  0  0
   -5.6240    1.9190   -0.8180 C   0  0  0  0  0  0  0  0  0  0  0  0
   -1.8580   -2.1580   -0.2710 C   0  0  0  0  0  0  0  0  0  0  0  0
   -1.3680   -2.8620   -0.9530 H   0  0  0  0  0  0  0  0  0  0  0  0
   -1.9050   -2.6670    0.6940 H   0  0  0  0  0  0  0  0  0  0  0  0
   -3.9890    1.5440    1.0400 C   0  0  0  0  0  0  0  0  0  0  0  0
   -3.9710    1.3500    2.1150 H   0  0  0  0  0  0  0  0  0  0  0  0
   -3.4420    2.4840    0.8970 H   0  0  0  0  0  0  0  0  0  0  0  0
    3.4820    1.6850   -0.1150 C   0  0  0  0  0  0  0  0  0  0  0  0
    3.1010    2.3830    0.6400 H   0  0  0  0  0  0  0  0  0  0  0  0
    3.2140    2.1240   -1.0830 H   0  0  0  0  0  0  0  0  0  0  0  0
    2.4350   -1.4970   -1.8340 C   0  0  0  0  0  0  0  0  0  0  0  0
    2.3090   -0.8730   -2.7250 H   0  0  0  0  0  0  0  0  0  0  0  0
    2.8740   -2.4190   -2.2430 H   0  0  0  0  0  0  0  0  0  0  0  0
    5.0240    1.6720   -0.0290 C   0  0  0  0  0  0  0  0  0  0  0  0
    4.5850   -0.2150   -1.7050 C   0  0  0  0  0  0  0  0  0  0  0  0
    5.0890   -1.0000   -2.2830 H   0  0  0  0  0  0  0  0  0  0  0  0
    4.1710    0.4750   -2.4530 H   0  0  0  0  0  0  0  0  0  0  0  0
   -5.9100    2.9810   -1.3620 O   0  0  0  0  0  0  0  0  0  0  0  0
   -5.4360    1.8110    0.6620 C   0  0  0  0  0  0  0  0  0  0  0  0
   -5.7410    2.7680    1.1050 H   0  0  0  0  0  0  0  0  0  0  0  0
   -6.1200    1.0820    1.0920 H   0  0  0  0  0  0  0  0  0  0  0  0
    5.6290    0.5290   -0.8720 C   0  0  0  0  0  0  0  0  0  0  0  0
    6.3930    0.9180   -1.5570 H   0  0  0  0  0  0  0  0  0  0  0  0
    6.1670   -0.1830   -0.2350 H   0  0  0  0  0  0  0  0  0  0  0  0
    0.8360   -1.7280    1.2100 C   0  0  0  0  0  0  0  0  0  0  0  0
    0.3180   -2.6910    1.2640 H   0  0  0  0  0  0  0  0  0  0  0  0
    0.5840   -1.1680    2.1080 H   0  0  0  0  0  0  0  0  0  0  0  0
    1.8920   -1.9500    1.3220 H   0  0  0  0  0  0  0  0  0  0  0  0
    0.9050    1.2110   -1.5210 C   0  0  0  0  0  0  0  0  0  0  0  0
    1.0340    2.2930   -1.3980 H   0  0  0  0  0  0  0  0  0  0  0  0
   -0.1090    1.0770   -1.8990 H   0  0  0  0  0  0  0  0  0  0  0  0
    1.5790    0.9280   -2.3290 H   0  0  0  0  0  0  0  0  0  0  0  0
   -1.7970   -0.3490    2.2680 C   0  0  0  0  0  0  0  0  0  0  0  0
   -0.9610    0.0370    2.8600 H   0  0  0  0  0  0  0  0  0  0  0  0
   -1.7540   -1.4360    2.3500 H   0  0  0  0  0  0  0  0  0  0  0  0
   -2.6860   -0.0300    2.8140 H   0  0  0  0  0  0  0  0  0  0  0  0
   -4.6100   -1.5390    1.2690 C   0  0  0  0  0  0  0  0  0  0  0  0
   -3.7900   -1.9150    1.8790 H   0  0  0  0  0  0  0  0  0  0  0  0
   -5.2290   -2.4180    1.0580 H   0  0  0  0  0  0  0  0  0  0  0  0
   -5.1980   -0.8620    1.8950 H   0  0  0  0  0  0  0  0  0  0  0  0
    4.0610   -2.0130   -0.0310 C   0  0  0  0  0  0  0  0  0  0  0  0
    4.8260   -2.5240   -0.6280 H   0  0  0  0  0  0  0  0  0  0  0  0
    3.3210   -2.7820    0.2050 H   0  0  0  0  0  0  0  0  0  0  0  0
    4.6680   -1.6070    1.1820 O   0  0  0  0  0  0  0  0  0  0  0  0
    5.0460   -2.4020    1.5950 H   0  0  0  0  0  0  0  0  0  0  0  0
   -6.7740   -0.9990   -0.5620 C   0  0  0  0  0  0  0  0  0  0  0  0
   -6.8320   -2.0890   -0.4830 H   0  0  0  0  0  0  0  0  0  0  0  0
   -7.5150   -0.6780   -1.3040 H   0  0  0  0  0  0  0  0  0  0  0  0
   -7.0910   -0.5740    0.3920 H   0  0  0  0  0  0  0  0  0  0  0  0
    5.4810    1.5720    1.4380 C   0  0  0  0  0  0  0  0  0  0  0  0
    6.5740    1.5410    1.5100 H   0  0  0  0  0  0  0  0  0  0  0  0
    5.0890    0.6810    1.9330 H   0  0  0  0  0  0  0  0  0  0  0  0
    5.1370    2.4370    2.0180 H   0  0  0  0  0  0  0  0  0  0  0  0
    5.5450    3.0230   -0.5710 C   0  0  0  0  0  0  0  0  0  0  0  0
    6.6360    3.0900   -0.4890 H   0  0  0  0  0  0  0  0  0  0  0  0
    5.1170    3.8650   -0.0140 H   0  0  0  0  0  0  0  0  0  0  0  0
    5.2820    3.1550   -1.6270 H   0  0  0  0  0  0  0  0  0  0  0  0
   -1.2430   -0.3940   -1.2030 H   0  0  0  0  0  0  0  0  0  0  0  0
    2.9020    0.0330    1.0900 H   0  0  0  0  0  0  0  0  0  0  0  0
   -3.0790    0.8650   -0.7510 H   0  0  0  0  0  0  0  0  0  0  0  0
   -5.2140   -1.1380   -1.9040 H   0  0  0  0  0  0  0  0  0  0  0  0
  1  2  1  0  0  0  0
  1  5  1  0  0  0  0
  1 20  1  0  0  0  0
  1 47  1  0  0  0  0
  2  7  1  0  0  0  0
  2 11  1  0  0  0  0
  2 51  1  0  0  0  0
  3  5  1  0  0  0  0
  3  6  1  0  0  0  0
  3 14  1  0  0  0  0
  3 55  1  0  0  0  0
  4  6  1  0  0  0  0
  4 10  1  0  0  0  0
  4 17  1  0  0  0  0
  4 59  1  0  0  0  0
  5 24  1  0  0  0  0
  5 80  1  0  0  0  0
  6 27  1  0  0  0  0
  6 82  1  0  0  0  0
  7  9  1  0  0  0  0
  7 30  1  0  0  0  0
  7 81  1  0  0  0  0
  8 10  1  0  0  0  0
  8 23  1  0  0  0  0
  9 33  1  0  0  0  0
  9 37  1  0  0  0  0
  9 63  1  0  0  0  0
 10 68  1  0  0  0  0
 10 83  1  0  0  0  0
 11 12  1  0  0  0  0
 11 13  1  0  0  0  0
 11 14  1  0  0  0  0
 14 15  1  0  0  0  0
 14 16  1  0  0  0  0
 17 18  1  0  0  0  0
 17 19  1  0  0  0  0
 17 24  1  0  0  0  0
 20 21  1  0  0  0  0
 20 22  1  0  0  0  0
 20 33  1  0  0  0  0
 23 40  2  0  0  0  0
 23 41  1  0  0  0  0
 24 25  1  0  0  0  0
 24 26  1  0  0  0  0
 27 28  1  0  0  0  0
 27 29  1  0  0  0  0
 27 41  1  0  0  0  0
 30 31  1  0  0  0  0
 30 32  1  0  0  0  0
 30 36  1  0  0  0  0
 33 34  1  0  0  0  0
 33 35  1  0  0  0  0
 36 44  1  0  0  0  0
 36 72  1  0  0  0  0
 36 76  1  0  0  0  0
 37 38  1  0  0  0  0
 37 39  1  0  0  0  0
 37 44  1  0  0  0  0
 41 42  1  0  0  0  0
 41 43  1  0  0  0  0
 44 45  1  0  0  0  0
 44 46  1  0  0  0  0
 47 48  1  0  0  0  0
 47 49  1  0  0  0  0
 47 50  1  0  0  0  0
 51 52  1  0  0  0  0
 51 53  1  0  0  0  0
 51 54  1  0  0  0  0
 55 56  1  0  0  0  0
 55 57  1  0  0  0  0
 55 58  1  0  0  0  0
 59 60  1  0  0  0  0
 59 61  1  0  0  0  0
 59 62  1  0  0  0  0
 63 64  1  0  0  0  0
 63 65  1  0  0  0  0
 63 66  1  0  0  0  0
 66 67  1  0  0  0  0
 68 69  1  0  0  0  0
 68 70  1  0  0  0  0
 68 71  1  0  0  0  0
 72 73  1  0  0  0  0
 72 74  1  0  0  0  0
 72 75  1  0  0  0  0
 76 77  1  0  0  0  0
 76 78  1  0  0  0  0
 76 79  1  0  0  0  0
M  END
>  <IDNUMBER>
AK-693/21159021

>  <NAME>
Apetalactone

>  <ADD_INFO>
http://www.specs.net/enter.php?specsid=AK-693/21159021

>  <H_ACCEPTORS>
3

>  <H_DONORS>
1

>  <ROTATABLE_BONDS>
1

>  <LOGP>
6.8499999

>  <LOGS>
-7.8800001

>  <TPSA>
46.529999

>  <PRICE>
N07

$$$$
AK-693/21159022
  MOE2011           3D

 53 55  0  0  1  0  0  0  0  0999 V2000
   -0.7250   -0.0230   -0.2170 C   0  0  0  0  0  0  0  0  0  0  0  0
   -1.5380   -0.6530    0.8250 C   0  0  0  0  0  0  0  0  0  0  0  0
    0.7650   -0.0210   -0.1650 C   0  0  0  0  0  0  0  0  0  0  0  0
    1.4860    1.1850    0.0130 C   0  0  0  0  0  0  0  0  0  0  0  0
   -2.5200    0.0280    1.4520 C   0  0  0  0  0  0  0  0  0  0  0  0
   -3.0620   -0.3820    2.3000 H   0  0  0  0  0  0  0  0  0  0  0  0
    2.8890    1.2040    0.0290 C   0  0  0  0  0  0  0  0  0  0  0  0
   -1.2620    0.7040   -1.2190 C   0  0  0  0  0  0  0  0  0  0  0  0
   -0.6100    1.1430   -1.9770 H   0  0  0  0  0  0  0  0  0  0  0  0
    1.4820   -1.2250   -0.2560 C   0  0  0  0  0  0  0  0  0  0  0  0
   -3.0320    1.3580    1.0350 C   0  0  0  0  0  0  0  0  0  0  0  0
    3.5810    0.0050   -0.1450 C   0  0  0  0  0  0  0  0  0  0  0  0
   -2.6490    1.0770   -1.3860 C   0  0  0  0  0  0  0  0  0  0  0  0
   -2.9540    1.1570   -2.4260 H   0  0  0  0  0  0  0  0  0  0  0  0
   -3.4740    1.4710   -0.3960 C   0  0  0  0  0  0  0  0  0  0  0  0
    2.8860   -1.2010   -0.2490 C   0  0  0  0  0  0  0  0  0  0  0  0
    3.4530   -2.1260   -0.3280 H   0  0  0  0  0  0  0  0  0  0  0  0
   -1.3010   -2.1060    1.2220 C   0  0  2  0  0  0  0  0  0  0  0  0
    0.7700   -2.5480   -0.3090 C   0  0  0  0  0  0  0  0  0  0  0  0
    0.0990   -2.5740   -1.1710 H   0  0  0  0  0  0  0  0  0  0  0  0
    1.4990   -3.3520   -0.4730 H   0  0  0  0  0  0  0  0  0  0  0  0
   -3.2430    2.2290    1.8700 O   0  0  0  0  0  0  0  0  0  0  0  0
    0.0590   -2.8050    1.0170 C   0  0  0  0  0  0  0  0  0  0  0  0
    0.7220   -2.5140    1.8450 H   0  0  0  0  0  0  0  0  0  0  0  0
   -0.0790   -3.8890    1.1280 H   0  0  0  0  0  0  0  0  0  0  0  0
    0.7930    2.3730    0.1170 O   0  0  0  0  0  0  0  0  0  0  0  0
    3.5030    2.4230    0.1520 O   0  0  0  0  0  0  0  0  0  0  0  0
   -2.4090   -3.0100    0.7000 N   0  3  0  0  0  0  0  0  0  0  0  0
   -2.3450   -3.9210    1.1750 H   0  0  0  0  0  0  0  0  0  0  0  0
   -3.3040   -2.6140    1.0150 H   0  0  0  0  0  0  0  0  0  0  0  0
    4.9490   -0.0620   -0.1670 O   0  0  0  0  0  0  0  0  0  0  0  0
   -4.7440    1.9900   -0.5550 O   0  0  0  0  0  0  0  0  0  0  0  0
   -2.5200   -3.2460   -0.7640 C   0  0  0  0  0  0  0  0  0  0  0  0
   -1.6930   -3.8860   -1.0760 H   0  0  0  0  0  0  0  0  0  0  0  0
   -2.5180   -2.2870   -1.2850 H   0  0  0  0  0  0  0  0  0  0  0  0
   -3.4670   -3.7630   -0.9350 H   0  0  0  0  0  0  0  0  0  0  0  0
    0.6290    2.7440    1.4860 C   0  0  0  0  0  0  0  0  0  0  0  0
   -0.1110    3.5480    1.5260 H   0  0  0  0  0  0  0  0  0  0  0  0
    1.5670    3.1270    1.9010 H   0  0  0  0  0  0  0  0  0  0  0  0
    0.2580    1.9130    2.0960 H   0  0  0  0  0  0  0  0  0  0  0  0
    4.4610    2.4700    1.2080 C   0  0  0  0  0  0  0  0  0  0  0  0
    4.4850    3.4970    1.5870 H   0  0  0  0  0  0  0  0  0  0  0  0
    5.4590    2.2350    0.8270 H   0  0  0  0  0  0  0  0  0  0  0  0
    4.2010    1.8120    2.0450 H   0  0  0  0  0  0  0  0  0  0  0  0
    5.4390    0.2670   -1.4690 C   0  0  0  0  0  0  0  0  0  0  0  0
    6.5290    0.1700   -1.4490 H   0  0  0  0  0  0  0  0  0  0  0  0
    5.1960    1.3000   -1.7400 H   0  0  0  0  0  0  0  0  0  0  0  0
    5.0500   -0.4260   -2.2220 H   0  0  0  0  0  0  0  0  0  0  0  0
   -5.1900    2.2770   -1.8730 C   0  0  0  0  0  0  0  0  0  0  0  0
   -6.1820    2.7330   -1.8010 H   0  0  0  0  0  0  0  0  0  0  0  0
   -5.2850    1.3590   -2.4620 H   0  0  0  0  0  0  0  0  0  0  0  0
   -4.5250    2.9940   -2.3660 H   0  0  0  0  0  0  0  0  0  0  0  0
   -1.4660   -2.1580    2.3090 H   0  0  0  0  0  0  0  0  0  0  0  0
  1  2  1  0  0  0  0
  1  3  1  0  0  0  0
  1  8  2  0  0  0  0
  2  5  2  0  0  0  0
  2 18  1  0  0  0  0
  3  4  2  0  0  0  0
  3 10  1  0  0  0  0
  4  7  1  0  0  0  0
  4 26  1  0  0  0  0
  5  6  1  0  0  0  0
  5 11  1  0  0  0  0
  7 12  2  0  0  0  0
  7 27  1  0  0  0  0
  8  9  1  0  0  0  0
  8 13  1  0  0  0  0
 10 16  2  0  0  0  0
 10 19  1  0  0  0  0
 11 15  1  0  0  0  0
 11 22  2  0  0  0  0
 12 16  1  0  0  0  0
 12 31  1  0  0  0  0
 13 14  1  0  0  0  0
 13 15  2  0  0  0  0
 15 32  1  0  0  0  0
 16 17  1  0  0  0  0
 18 23  1  0  0  0  0
 18 28  1  0  0  0  0
 18 53  1  0  0  0  0
 19 20  1  0  0  0  0
 19 21  1  0  0  0  0
 19 23  1  0  0  0  0
 23 24  1  0  0  0  0
 23 25  1  0  0  0  0
 26 37  1  0  0  0  0
 27 41  1  0  0  0  0
 28 29  1  0  0  0  0
 28 30  1  0  0  0  0
 28 33  1  0  0  0  0
 31 45  1  0  0  0  0
 32 49  1  0  0  0  0
 33 34  1  0  0  0  0
 33 35  1  0  0  0  0
 33 36  1  0  0  0  0
 37 38  1  0  0  0  0
 37 39  1  0  0  0  0
 37 40  1  0  0  0  0
 41 42  1  0  0  0  0
 41 43  1  0  0  0  0
 41 44  1  0  0  0  0
 45 46  1  0  0  0  0
 45 47  1  0  0  0  0
 45 48  1  0  0  0  0
 49 50  1  0  0  0  0
 49 51  1  0  0  0  0
 49 52  1  0  0  0  0
M  CHG  1  28   1
M  END
>  <IDNUMBER>
AK-693/21159022

>  <NAME>
Colcemide

>  <ADD_INFO>
http://www.specs.net/enter.php?specsid=AK-693/21159022

>  <H_ACCEPTORS>
3

>  <H_DONORS>
1

>  <ROTATABLE_BONDS>
5

>  <LOGP>
1.37

>  <LOGS>
-2.0699999

>  <TPSA>
66.019997

>  <PRICE>
N07

$$$$
AK-693/21159025
  MOE2011           3D

 61 66  0  0  1  0  0  0  0  0999 V2000
    1.5170   -1.1440    0.3500 C   0  0  1  0  0  0  0  0  0  0  0  0
   -0.0180   -1.1140    0.4040 C   0  0  2  0  0  0  0  0  0  0  0  0
   -2.7740   -0.2330   -0.3430 C   0  0  0  0  0  0  0  0  0  0  0  0
   -2.0420    0.5320    0.8250 C   0  0  1  0  0  0  0  0  0  0  0  0
    2.3050    0.1300    0.0520 C   0  0  2  0  0  0  0  0  0  0  0  0
    2.0770   -1.9340    1.4420 O   0  0  0  0  0  0  0  0  0  0  0  0
   -0.6670   -1.5070   -0.9010 C   0  0  0  0  0  0  0  0  0  0  0  0
    2.4260   -2.3130    0.1180 C   0  0  2  0  0  0  0  0  0  0  0  0
   -2.1020   -1.1170   -1.1270 C   0  0  0  0  0  0  0  0  0  0  0  0
   -0.4850    0.3650    0.6400 C   0  0  1  0  0  0  0  0  0  0  0  0
    3.8060   -0.3460    0.2280 C   0  0  1  0  0  0  0  0  0  0  0  0
   -4.2560    0.2000   -0.6050 C   0  0  0  0  0  0  0  0  0  0  0  0
   -2.3630    2.0220    0.7160 C   0  0  0  0  0  0  0  0  0  0  0  0
   -1.7610    2.7130    1.3020 H   0  0  0  0  0  0  0  0  0  0  0  0
    3.7850   -1.8150   -0.2910 C   0  0  0  0  0  0  0  0  0  0  0  0
    4.5860   -2.4070    0.1650 H   0  0  0  0  0  0  0  0  0  0  0  0
    3.8840   -1.8800   -1.3790 H   0  0  0  0  0  0  0  0  0  0  0  0
    4.8580    0.5350   -0.3690 C   0  0  0  0  0  0  0  0  0  0  0  0
    1.8930    1.2180    1.0740 C   0  0  0  0  0  0  0  0  0  0  0  0
    2.5880    1.2400    1.9230 H   0  0  0  0  0  0  0  0  0  0  0  0
    1.9710    2.2080    0.6070 H   0  0  0  0  0  0  0  0  0  0  0  0
   -4.2920    1.7310   -0.7790 C   0  0  0  0  0  0  0  0  0  0  0  0
   -3.3400    2.5670   -0.0160 C   0  0  0  0  0  0  0  0  0  0  0  0
   -3.5030    3.6380   -0.0510 H   0  0  0  0  0  0  0  0  0  0  0  0
    0.4650    1.0430    1.6540 C   0  0  0  0  0  0  0  0  0  0  0  0
    0.1100    2.0260    1.9710 H   0  0  0  0  0  0  0  0  0  0  0  0
    0.5300    0.4380    2.5660 H   0  0  0  0  0  0  0  0  0  0  0  0
   -0.1250   -2.1910   -1.7700 O   0  0  0  0  0  0  0  0  0  0  0  0
    6.3380    2.2300   -0.5810 O   0  0  0  0  0  0  0  0  0  0  0  0
    5.4090    1.6560    0.2230 C   0  0  0  0  0  0  0  0  0  0  0  0
    5.2500    2.1500    1.1720 H   0  0  0  0  0  0  0  0  0  0  0  0
    5.5160    0.4270   -1.6300 C   0  0  0  0  0  0  0  0  0  0  0  0
    5.3640   -0.3200   -2.3950 H   0  0  0  0  0  0  0  0  0  0  0  0
   -2.6560   -1.7490   -2.2210 O   0  0  0  0  0  0  0  0  0  0  0  0
   -1.9220   -2.2680   -2.6180 H   0  0  0  0  0  0  0  0  0  0  0  0
    6.4000    1.4780   -1.7070 C   0  0  0  0  0  0  0  0  0  0  0  0
    7.1050    1.8110   -2.4550 H   0  0  0  0  0  0  0  0  0  0  0  0
   -5.1320    2.3140   -1.4670 O   0  0  0  0  0  0  0  0  0  0  0  0
   -0.5400   -2.1390    1.4420 C   0  0  0  0  0  0  0  0  0  0  0  0
   -0.3010   -1.8370    2.4660 H   0  0  0  0  0  0  0  0  0  0  0  0
   -0.0920   -3.1280    1.2770 H   0  0  0  0  0  0  0  0  0  0  0  0
   -1.6160   -2.3150    1.3720 H   0  0  0  0  0  0  0  0  0  0  0  0
   -2.5030    0.0930    2.2340 C   0  0  0  0  0  0  0  0  0  0  0  0
   -1.6890    0.1190    2.9640 H   0  0  0  0  0  0  0  0  0  0  0  0
   -2.9230   -0.9160    2.2430 H   0  0  0  0  0  0  0  0  0  0  0  0
   -3.2770    0.7520    2.6450 H   0  0  0  0  0  0  0  0  0  0  0  0
    2.0860    0.5880   -1.4120 C   0  0  0  0  0  0  0  0  0  0  0  0
    2.6160    1.5240   -1.6180 H   0  0  0  0  0  0  0  0  0  0  0  0
    1.0420    0.7610   -1.6730 H   0  0  0  0  0  0  0  0  0  0  0  0
    2.4410   -0.1640   -2.1250 H   0  0  0  0  0  0  0  0  0  0  0  0
   -4.9310   -0.3930   -1.8680 C   0  0  0  0  0  0  0  0  0  0  0  0
   -5.0180   -1.4830   -1.8080 H   0  0  0  0  0  0  0  0  0  0  0  0
   -4.3960   -0.1140   -2.7830 H   0  0  0  0  0  0  0  0  0  0  0  0
   -5.9540   -0.0130   -1.9920 H   0  0  0  0  0  0  0  0  0  0  0  0
   -5.1800   -0.1680    0.5730 C   0  0  0  0  0  0  0  0  0  0  0  0
   -5.0340   -1.2080    0.8840 H   0  0  0  0  0  0  0  0  0  0  0  0
   -6.2370   -0.0530    0.3010 H   0  0  0  0  0  0  0  0  0  0  0  0
   -5.0390    0.4820    1.4400 H   0  0  0  0  0  0  0  0  0  0  0  0
   -0.3070    0.9220   -0.2880 H   0  0  0  0  0  0  0  0  0  0  0  0
    2.0770   -3.2380   -0.3080 H   0  0  0  0  0  0  0  0  0  0  0  0
    4.0240   -0.4040    1.3060 H   0  0  0  0  0  0  0  0  0  0  0  0
  1  2  1  0  0  0  0
  1  5  1  0  0  0  0
  1  6  1  0  0  0  0
  1  8  1  0  0  0  0
  2  7  1  0  0  0  0
  2 10  1  0  0  0  0
  2 39  1  0  0  0  0
  3  4  1  0  0  0  0
  3  9  2  0  0  0  0
  3 12  1  0  0  0  0
  4 10  1  0  0  0  0
  4 13  1  0  0  0  0
  4 43  1  0  0  0  0
  5 11  1  0  0  0  0
  5 19  1  0  0  0  0
  5 47  1  0  0  0  0
  6  8  1  0  0  0  0
  7  9  1  0  0  0  0
  7 28  2  0  0  0  0
  8 15  1  0  0  0  0
  8 60  1  0  0  0  0
  9 34  1  0  0  0  0
 10 25  1  0  0  0  0
 10 59  1  0  0  0  0
 11 15  1  0  0  0  0
 11 18  1  0  0  0  0
 11 61  1  0  0  0  0
 12 22  1  0  0  0  0
 12 51  1  0  0  0  0
 12 55  1  0  0  0  0
 13 14  1  0  0  0  0
 13 23  2  0  0  0  0
 15 16  1  0  0  0  0
 15 17  1  0  0  0  0
 18 30  2  0  0  0  0
 18 32  1  0  0  0  0
 19 20  1  0  0  0  0
 19 21  1  0  0  0  0
 19 25  1  0  0  0  0
 22 23  1  0  0  0  0
 22 38  2  0  0  0  0
 23 24  1  0  0  0  0
 25 26  1  0  0  0  0
 25 27  1  0  0  0  0
 29 30  1  0  0  0  0
 29 36  1  0  0  0  0
 30 31  1  0  0  0  0
 32 33  1  0  0  0  0
 32 36  2  0  0  0  0
 34 35  1  0  0  0  0
 36 37  1  0  0  0  0
 39 40  1  0  0  0  0
 39 41  1  0  0  0  0
 39 42  1  0  0  0  0
 43 44  1  0  0  0  0
 43 45  1  0  0  0  0
 43 46  1  0  0  0  0
 47 48  1  0  0  0  0
 47 49  1  0  0  0  0
 47 50  1  0  0  0  0
 51 52  1  0  0  0  0
 51 53  1  0  0  0  0
 51 54  1  0  0  0  0
 55 56  1  0  0  0  0
 55 57  1  0  0  0  0
 55 58  1  0  0  0  0
M  END
>  <IDNUMBER>
AK-693/21159025

>  <NAME>
Cedrelone

>  <ADD_INFO>
http://www.specs.net/enter.php?specsid=AK-693/21159025

>  <H_ACCEPTORS>
4

>  <H_DONORS>
1

>  <ROTATABLE_BONDS>
1

>  <LOGP>
4.4200001

>  <LOGS>
-6.0500002

>  <TPSA>
80.040001

>  <PRICE>
N08

$$$$
AK-693/21164004
  MOE2011           3D

 44 48  0  0  1  0  0  0  0  0999 V2000
    1.1430    0.4520    0.1000 C   0  0  0  0  0  0  0  0  0  0  0  0
    0.2470   -0.5470   -0.0690 C   0  0  0  0  0  0  0  0  0  0  0  0
    2.6000    0.1430    0.0220 C   0  0  0  0  0  0  0  0  0  0  0  0
   -1.2010   -0.2060   -0.1120 C   0  0  0  0  0  0  0  0  0  0  0  0
    0.7560    1.7510    0.3460 N   0  0  0  0  0  0  0  0  0  0  0  0
    1.4750    2.4430    0.5090 H   0  0  0  0  0  0  0  0  0  0  0  0
   -1.6140    1.1190    0.1280 C   0  0  0  0  0  0  0  0  0  0  0  0
    3.0350   -1.1960    0.2190 C   0  0  0  0  0  0  0  0  0  0  0  0
    3.5610    1.1290   -0.2670 C   0  0  0  0  0  0  0  0  0  0  0  0
    3.2910    2.1560   -0.4810 H   0  0  0  0  0  0  0  0  0  0  0  0
   -2.1880   -1.1540   -0.4140 C   0  0  0  0  0  0  0  0  0  0  0  0
   -1.9310   -2.1830   -0.6460 H   0  0  0  0  0  0  0  0  0  0  0  0
    4.8920    0.7660   -0.3070 C   0  0  0  0  0  0  0  0  0  0  0  0
    5.3020   -0.5250   -0.0810 C   0  0  0  0  0  0  0  0  0  0  0  0
    0.6910   -1.9850   -0.2060 C   0  0  0  0  0  0  0  0  0  0  0  0
   -0.0400   -2.6770    0.2250 H   0  0  0  0  0  0  0  0  0  0  0  0
    0.7820   -2.2250   -1.2730 H   0  0  0  0  0  0  0  0  0  0  0  0
   -3.5470   -0.8110   -0.4310 C   0  0  0  0  0  0  0  0  0  0  0  0
    4.4000   -1.5290    0.1850 C   0  0  0  0  0  0  0  0  0  0  0  0
    4.7410   -2.5450    0.3560 H   0  0  0  0  0  0  0  0  0  0  0  0
   -2.9830    1.4630    0.0850 C   0  0  0  0  0  0  0  0  0  0  0  0
   -3.2530    2.4980    0.2720 H   0  0  0  0  0  0  0  0  0  0  0  0
   -3.9590    0.5070   -0.2030 C   0  0  0  0  0  0  0  0  0  0  0  0
   -0.6120    2.2070    0.4310 C   0  0  0  0  0  0  0  0  0  0  0  0
   -0.7940    2.5880    1.4420 H   0  0  0  0  0  0  0  0  0  0  0  0
   -0.7490    3.0330   -0.2770 H   0  0  0  0  0  0  0  0  0  0  0  0
    5.9340    1.6020   -0.5660 O   0  0  0  0  0  0  0  0  0  0  0  0
    6.6520   -0.6650   -0.1630 O   0  0  0  0  0  0  0  0  0  0  0  0
    2.0150   -2.2610    0.5130 C   0  0  0  0  0  0  0  0  0  0  0  0
    2.3840   -3.2470    0.2050 H   0  0  0  0  0  0  0  0  0  0  0  0
    1.8540   -2.2950    1.5980 H   0  0  0  0  0  0  0  0  0  0  0  0
    7.0470    0.6890   -0.4670 C   0  0  0  0  0  0  0  0  0  0  0  0
    7.5880    0.6910   -1.4200 H   0  0  0  0  0  0  0  0  0  0  0  0
    7.7210    1.0430    0.3220 H   0  0  0  0  0  0  0  0  0  0  0  0
   -4.4070   -1.8340   -0.7520 O   0  0  0  0  0  0  0  0  0  0  0  0
   -5.2990    0.7650   -0.3030 O   0  0  0  0  0  0  0  0  0  0  0  0
   -5.3550   -2.0890    0.2840 C   0  0  0  0  0  0  0  0  0  0  0  0
   -5.6210   -3.1490    0.2350 H   0  0  0  0  0  0  0  0  0  0  0  0
   -6.2670   -1.5110    0.1160 H   0  0  0  0  0  0  0  0  0  0  0  0
   -4.9510   -1.8910    1.2840 H   0  0  0  0  0  0  0  0  0  0  0  0
   -5.7290    2.1100   -0.1380 C   0  0  0  0  0  0  0  0  0  0  0  0
   -6.8140    2.1340   -0.2760 H   0  0  0  0  0  0  0  0  0  0  0  0
   -5.2830    2.7640   -0.8960 H   0  0  0  0  0  0  0  0  0  0  0  0
   -5.5130    2.4700    0.8730 H   0  0  0  0  0  0  0  0  0  0  0  0
  1  2  2  0  0  0  0
  1  3  1  0  0  0  0
  1  5  1  0  0  0  0
  2  4  1  0  0  0  0
  2 15  1  0  0  0  0
  3  8  1  0  0  0  0
  3  9  2  0  0  0  0
  4  7  1  0  0  0  0
  4 11  2  0  0  0  0
  5  6  1  0  0  0  0
  5 24  1  0  0  0  0
  7 21  2  0  0  0  0
  7 24  1  0  0  0  0
  8 19  2  0  0  0  0
  8 29  1  0  0  0  0
  9 10  1  0  0  0  0
  9 13  1  0  0  0  0
 11 12  1  0  0  0  0
 11 18  1  0  0  0  0
 13 14  2  0  0  0  0
 13 27  1  0  0  0  0
 14 19  1  0  0  0  0
 14 28  1  0  0  0  0
 15 16  1  0  0  0  0
 15 17  1  0  0  0  0
 15 29  1  0  0  0  0
 18 23  2  0  0  0  0
 18 35  1  0  0  0  0
 19 20  1  0  0  0  0
 21 22  1  0  0  0  0
 21 23  1  0  0  0  0
 23 36  1  0  0  0  0
 24 25  1  0  0  0  0
 24 26  1  0  0  0  0
 27 32  1  0  0  0  0
 28 32  1  0  0  0  0
 29 30  1  0  0  0  0
 29 31  1  0  0  0  0
 32 33  1  0  0  0  0
 32 34  1  0  0  0  0
 35 37  1  0  0  0  0
 36 41  1  0  0  0  0
 37 38  1  0  0  0  0
 37 39  1  0  0  0  0
 37 40  1  0  0  0  0
 41 42  1  0  0  0  0
 41 43  1  0  0  0  0
 41 44  1  0  0  0  0
M  END
>  <IDNUMBER>
AK-693/21164004

>  <NAME>
2,3-dimethoxy-5,6,12,13-tetrahydro[1,3]benzodioxolo[5,6-c]phenanthridine

>  <ADD_INFO>
http://www.specs.net/enter.php?specsid=AK-693/21164004

>  <H_ACCEPTORS>
1

>  <H_DONORS>
1

>  <ROTATABLE_BONDS>
2

>  <LOGP>
3.8699999

>  <LOGS>
-3.95

>  <TPSA>
48.950001

>  <PRICE>
N08

$$$$
AK-693/21164005
  MOE2011           3D

 59 61  0  0  0  0  0  0  0  0999 V2000
   -2.2480    0.8960   -0.2640 C   0  0  0  0  0  0  0  0  0  0  0  0
   -1.6220   -0.3490   -0.2040 C   0  0  0  0  0  0  0  0  0  0  0  0
   -1.3920    2.0940   -0.4400 C   0  0  0  0  0  0  0  0  0  0  0  0
    0.5380    0.6230   -0.2970 C   0  0  0  0  0  0  0  0  0  0  0  0
    0.0850    1.8900   -0.3340 C   0  0  0  0  0  0  0  0  0  0  0  0
   -0.2640   -0.5000   -0.3140 O   0  0  0  0  0  0  0  0  0  0  0  0
   -3.6500    0.9660   -0.1820 C   0  0  0  0  0  0  0  0  0  0  0  0
   -2.3800   -1.5150   -0.0250 C   0  0  0  0  0  0  0  0  0  0  0  0
   -4.4140   -0.2060   -0.0340 C   0  0  0  0  0  0  0  0  0  0  0  0
   -3.7740   -1.4470    0.0790 C   0  0  0  0  0  0  0  0  0  0  0  0
    1.9760    0.2910   -0.2670 C   0  0  0  0  0  0  0  0  0  0  0  0
    4.6900   -0.4150   -0.2090 C   0  0  0  0  0  0  0  0  0  0  0  0
    3.8720   -0.8570   -1.2570 C   0  0  0  0  0  0  0  0  0  0  0  0
    4.1700    0.4230    0.7920 C   0  0  0  0  0  0  0  0  0  0  0  0
    2.5150   -0.5320   -1.2630 C   0  0  0  0  0  0  0  0  0  0  0  0
    1.8850   -0.9110   -2.0650 H   0  0  0  0  0  0  0  0  0  0  0  0
    2.8120    0.7630    0.7590 C   0  0  0  0  0  0  0  0  0  0  0  0
    2.3770    1.3900    1.5310 H   0  0  0  0  0  0  0  0  0  0  0  0
   -1.8630    3.1970   -0.6860 O   0  0  0  0  0  0  0  0  0  0  0  0
    0.9620    2.9640   -0.3760 O   0  0  0  0  0  0  0  0  0  0  0  0
   -4.2890    2.1800   -0.1570 O   0  0  0  0  0  0  0  0  0  0  0  0
   -1.7630   -2.7430   -0.0110 O   0  0  0  0  0  0  0  0  0  0  0  0
   -5.7800   -0.0820    0.0450 O   0  0  0  0  0  0  0  0  0  0  0  0
   -4.4670   -2.6170    0.2590 O   0  0  0  0  0  0  0  0  0  0  0  0
    6.0210   -0.7610   -0.1750 O   0  0  0  0  0  0  0  0  0  0  0  0
    4.2980   -1.6590   -2.2840 O   0  0  0  0  0  0  0  0  0  0  0  0
    5.0550    0.8340    1.7570 O   0  0  0  0  0  0  0  0  0  0  0  0
    0.6060    4.0460    0.4790 C   0  0  0  0  0  0  0  0  0  0  0  0
    1.5200    4.6030    0.7080 H   0  0  0  0  0  0  0  0  0  0  0  0
    0.1790    3.6980    1.4270 H   0  0  0  0  0  0  0  0  0  0  0  0
   -0.0780    4.7300   -0.0290 H   0  0  0  0  0  0  0  0  0  0  0  0
   -4.7470    2.5480   -1.4580 C   0  0  0  0  0  0  0  0  0  0  0  0
   -4.8870    3.6330   -1.4700 H   0  0  0  0  0  0  0  0  0  0  0  0
   -5.7160    2.0820   -1.6640 H   0  0  0  0  0  0  0  0  0  0  0  0
   -4.0310    2.2880   -2.2470 H   0  0  0  0  0  0  0  0  0  0  0  0
   -5.0640   -2.6780    1.5560 C   0  0  0  0  0  0  0  0  0  0  0  0
   -5.2190   -3.7330    1.8010 H   0  0  0  0  0  0  0  0  0  0  0  0
   -6.0420   -2.1880    1.5550 H   0  0  0  0  0  0  0  0  0  0  0  0
   -4.4230   -2.2420    2.3310 H   0  0  0  0  0  0  0  0  0  0  0  0
   -6.4300   -0.6910   -1.0730 C   0  0  0  0  0  0  0  0  0  0  0  0
   -7.4020   -0.2040   -1.1970 H   0  0  0  0  0  0  0  0  0  0  0  0
   -6.6110   -1.7530   -0.8850 H   0  0  0  0  0  0  0  0  0  0  0  0
   -5.8660   -0.5600   -2.0040 H   0  0  0  0  0  0  0  0  0  0  0  0
   -1.2670   -3.0470    1.2920 C   0  0  0  0  0  0  0  0  0  0  0  0
   -0.8500   -4.0580    1.2630 H   0  0  0  0  0  0  0  0  0  0  0  0
   -2.0680   -3.0340    2.0390 H   0  0  0  0  0  0  0  0  0  0  0  0
   -0.4670   -2.3600    1.5870 H   0  0  0  0  0  0  0  0  0  0  0  0
    6.1870   -1.9890    0.5350 C   0  0  0  0  0  0  0  0  0  0  0  0
    7.2550   -2.2250    0.5490 H   0  0  0  0  0  0  0  0  0  0  0  0
    5.6660   -2.8110    0.0320 H   0  0  0  0  0  0  0  0  0  0  0  0
    5.8460   -1.9000    1.5720 H   0  0  0  0  0  0  0  0  0  0  0  0
    5.3980   -1.1000   -3.0010 C   0  0  0  0  0  0  0  0  0  0  0  0
    5.3320   -1.4540   -4.0350 H   0  0  0  0  0  0  0  0  0  0  0  0
    6.3430   -1.4620   -2.5880 H   0  0  0  0  0  0  0  0  0  0  0  0
    5.3780   -0.0040   -3.0220 H   0  0  0  0  0  0  0  0  0  0  0  0
    4.5960    1.7970    2.6970 C   0  0  0  0  0  0  0  0  0  0  0  0
    5.4420    2.0700    3.3350 H   0  0  0  0  0  0  0  0  0  0  0  0
    3.8170    1.3750    3.3410 H   0  0  0  0  0  0  0  0  0  0  0  0
    4.2480    2.7070    2.1970 H   0  0  0  0  0  0  0  0  0  0  0  0
  1  2  2  0  0  0  0
  1  3  1  0  0  0  0
  1  7  1  0  0  0  0
  2  6  1  0  0  0  0
  2  8  1  0  0  0  0
  3  5  1  0  0  0  0
  3 19  2  0  0  0  0
  4  5  2  0  0  0  0
  4  6  1  0  0  0  0
  4 11  1  0  0  0  0
  5 20  1  0  0  0  0
  7  9  2  0  0  0  0
  7 21  1  0  0  0  0
  8 10  2  0  0  0  0
  8 22  1  0  0  0  0
  9 10  1  0  0  0  0
  9 23  1  0  0  0  0
 10 24  1  0  0  0  0
 11 15  1  0  0  0  0
 11 17  2  0  0  0  0
 12 13  1  0  0  0  0
 12 14  2  0  0  0  0
 12 25  1  0  0  0  0
 13 15  2  0  0  0  0
 13 26  1  0  0  0  0
 14 17  1  0  0  0  0
 14 27  1  0  0  0  0
 15 16  1  0  0  0  0
 17 18  1  0  0  0  0
 20 28  1  0  0  0  0
 21 32  1  0  0  0  0
 22 44  1  0  0  0  0
 23 40  1  0  0  0  0
 24 36  1  0  0  0  0
 25 48  1  0  0  0  0
 26 52  1  0  0  0  0
 27 56  1  0  0  0  0
 28 29  1  0  0  0  0
 28 30  1  0  0  0  0
 28 31  1  0  0  0  0
 32 33  1  0  0  0  0
 32 34  1  0  0  0  0
 32 35  1  0  0  0  0
 36 37  1  0  0  0  0
 36 38  1  0  0  0  0
 36 39  1  0  0  0  0
 40 41  1  0  0  0  0
 40 42  1  0  0  0  0
 40 43  1  0  0  0  0
 44 45  1  0  0  0  0
 44 46  1  0  0  0  0
 44 47  1  0  0  0  0
 48 49  1  0  0  0  0
 48 50  1  0  0  0  0
 48 51  1  0  0  0  0
 52 53  1  0  0  0  0
 52 54  1  0  0  0  0
 52 55  1  0  0  0  0
 56 57  1  0  0  0  0
 56 58  1  0  0  0  0
 56 59  1  0  0  0  0
M  END
>  <IDNUMBER>
AK-693/21164005

>  <NAME>
3,5,6,7,8-pentamethoxy-2-(3,4,5-trimethoxyphenyl)-4H-chromen-4-one

>  <ADD_INFO>
http://www.specs.net/enter.php?specsid=AK-693/21164005

>  <H_ACCEPTORS>
2

>  <H_DONORS>
0

>  <ROTATABLE_BONDS>
9

>  <LOGP>
2.76

>  <LOGS>
-4.9299998

>  <TPSA>
100.14

>  <PRICE>
N07

$$$$
AK-693/21164007
  MOE2011           3D

 31 34  0  0  0  0  0  0  0  0999 V2000
    0.2050   -0.7760    0.0360 C   0  0  0  0  0  0  0  0  0  0  0  0
    0.0020    0.6310   -0.1490 C   0  0  0  0  0  0  0  0  0  0  0  0
   -0.8190   -1.6390    0.1500 N   0  0  0  0  0  0  0  0  0  0  0  0
   -2.3820    0.2150   -0.1530 C   0  0  0  0  0  0  0  0  0  0  0  0
   -2.0410   -1.1110    0.0360 C   0  0  0  0  0  0  0  0  0  0  0  0
    1.5300   -1.2470    0.1130 C   0  0  0  0  0  0  0  0  0  0  0  0
   -1.3200    1.1240   -0.2190 C   0  0  0  0  0  0  0  0  0  0  0  0
    2.5810   -0.3430    0.0420 C   0  0  0  0  0  0  0  0  0  0  0  0
    2.3700    0.9950   -0.1410 C   0  0  0  0  0  0  0  0  0  0  0  0
    1.1020    1.5090   -0.2470 C   0  0  0  0  0  0  0  0  0  0  0  0
    0.9670    2.5770   -0.3940 H   0  0  0  0  0  0  0  0  0  0  0  0
   -3.1550   -1.8890    0.0920 O   0  0  0  0  0  0  0  0  0  0  0  0
    3.9100   -0.6410    0.1220 O   0  0  0  0  0  0  0  0  0  0  0  0
   -3.7980    0.2430   -0.2310 C   0  0  0  0  0  0  0  0  0  0  0  0
   -4.4340    1.1040   -0.3830 H   0  0  0  0  0  0  0  0  0  0  0  0
    3.5240    1.7110   -0.1990 O   0  0  0  0  0  0  0  0  0  0  0  0
   -4.2180   -1.0580   -0.0730 C   0  0  0  0  0  0  0  0  0  0  0  0
   -5.1880   -1.5360   -0.0560 H   0  0  0  0  0  0  0  0  0  0  0  0
    4.5000    0.6640   -0.0270 C   0  0  0  0  0  0  0  0  0  0  0  0
    5.0980    0.8840    0.8640 H   0  0  0  0  0  0  0  0  0  0  0  0
    5.1610    0.6540   -0.9010 H   0  0  0  0  0  0  0  0  0  0  0  0
    1.9050   -2.5530    0.3190 O   0  0  0  0  0  0  0  0  0  0  0  0
   -1.5470    2.4670   -0.4320 O   0  0  0  0  0  0  0  0  0  0  0  0
    1.1700   -3.5280   -0.4150 C   0  0  0  0  0  0  0  0  0  0  0  0
    1.8300   -4.3850   -0.5770 H   0  0  0  0  0  0  0  0  0  0  0  0
    0.8550   -3.1640   -1.4000 H   0  0  0  0  0  0  0  0  0  0  0  0
    0.3160   -3.8810    0.1700 H   0  0  0  0  0  0  0  0  0  0  0  0
   -1.9520    3.1010    0.7820 C   0  0  0  0  0  0  0  0  0  0  0  0
   -1.9610    4.1810    0.6080 H   0  0  0  0  0  0  0  0  0  0  0  0
   -1.2490    2.8950    1.5970 H   0  0  0  0  0  0  0  0  0  0  0  0
   -2.9640    2.7970    1.0670 H   0  0  0  0  0  0  0  0  0  0  0  0
  1  2  1  0  0  0  0
  1  3  1  0  0  0  0
  1  6  2  0  0  0  0
  2  7  1  0  0  0  0
  2 10  2  0  0  0  0
  3  5  2  0  0  0  0
  4  5  1  0  0  0  0
  4  7  2  0  0  0  0
  4 14  1  0  0  0  0
  5 12  1  0  0  0  0
  6  8  1  0  0  0  0
  6 22  1  0  0  0  0
  7 23  1  0  0  0  0
  8  9  2  0  0  0  0
  8 13  1  0  0  0  0
  9 10  1  0  0  0  0
  9 16  1  0  0  0  0
 10 11  1  0  0  0  0
 12 17  1  0  0  0  0
 13 19  1  0  0  0  0
 14 15  1  0  0  0  0
 14 17  2  0  0  0  0
 16 19  1  0  0  0  0
 17 18  1  0  0  0  0
 19 20  1  0  0  0  0
 19 21  1  0  0  0  0
 22 24  1  0  0  0  0
 23 28  1  0  0  0  0
 24 25  1  0  0  0  0
 24 26  1  0  0  0  0
 24 27  1  0  0  0  0
 28 29  1  0  0  0  0
 28 30  1  0  0  0  0
 28 31  1  0  0  0  0
M  END
>  <IDNUMBER>
AK-693/21164007

>  <NAME>
4,9-dimethoxy[1,3]dioxolo[4,5-g]furo[2,3-b]quinoline

>  <ADD_INFO>
http://www.specs.net/enter.php?specsid=AK-693/21164007

>  <H_ACCEPTORS>
1

>  <H_DONORS>
0

>  <ROTATABLE_BONDS>
2

>  <LOGP>
2.9100001

>  <LOGS>
-4.79

>  <TPSA>
62.950001

>  <PRICE>
N07

$$$$
AK-693/21164012
  MOE2011           3D

 35 38  0  0  1  0  0  0  0  0999 V2000
    1.0540    1.6440   -0.3630 C   0  0  1  0  0  0  0  0  0  0  0  0
   -1.4050    1.1450    0.2020 C   0  0  0  0  0  0  0  0  0  0  0  0
    2.1870    2.5310   -0.2010 O   0  0  0  0  0  0  0  0  0  0  0  0
   -1.7010   -0.2160    0.3160 C   0  0  0  0  0  0  0  0  0  0  0  0
   -0.8420   -1.4060    0.6600 C   0  0  3  0  0  0  0  0  0  0  0  0
    2.2670    1.3030    0.5070 C   0  0  2  0  0  0  0  0  0  0  0  0
    0.9250   -2.0990   -0.6140 C   0  0  0  0  0  0  0  0  0  0  0  0
   -0.4330   -2.1000   -0.5290 O   0  0  0  0  0  0  0  0  0  0  0  0
   -0.2040    2.0320    0.3780 C   0  0  0  0  0  0  0  0  0  0  0  0
   -0.4690    3.0490    0.0590 H   0  0  0  0  0  0  0  0  0  0  0  0
   -0.0070    2.1050    1.4550 H   0  0  0  0  0  0  0  0  0  0  0  0
    1.4720   -1.4350    0.5720 C   0  0  0  0  0  0  0  0  0  0  0  0
    0.4320   -1.0980    1.3360 C   0  0  0  0  0  0  0  0  0  0  0  0
    0.4980   -0.5680    2.2760 H   0  0  0  0  0  0  0  0  0  0  0  0
   -2.5290    1.8350   -0.1520 O   0  0  0  0  0  0  0  0  0  0  0  0
   -3.1030   -0.3270   -0.0150 C   0  0  0  0  0  0  0  0  0  0  0  0
   -3.5370    0.9500   -0.2820 C   0  0  0  0  0  0  0  0  0  0  0  0
   -4.4920    1.3690   -0.5690 H   0  0  0  0  0  0  0  0  0  0  0  0
    1.5810   -2.5600   -1.5310 O   0  0  0  0  0  0  0  0  0  0  0  0
    3.2450    0.2560    0.0780 C   0  0  0  0  0  0  0  0  0  0  0  0
    3.2670    0.1330   -1.0090 H   0  0  0  0  0  0  0  0  0  0  0  0
    4.2540    0.5600    0.3790 H   0  0  0  0  0  0  0  0  0  0  0  0
    2.9100   -1.0930    0.7490 C   0  0  0  0  0  0  0  0  0  0  0  0
    3.1350   -1.0270    1.8210 H   0  0  0  0  0  0  0  0  0  0  0  0
    3.5520   -1.8840    0.3450 H   0  0  0  0  0  0  0  0  0  0  0  0
    0.9030    1.2800   -1.8140 C   0  0  0  0  0  0  0  0  0  0  0  0
    0.4100    0.3120   -1.9330 H   0  0  0  0  0  0  0  0  0  0  0  0
    1.8640    1.2340   -2.3350 H   0  0  0  0  0  0  0  0  0  0  0  0
    0.2950    2.0320   -2.3290 H   0  0  0  0  0  0  0  0  0  0  0  0
   -3.9210   -1.5640   -0.0700 C   0  0  0  0  0  0  0  0  0  0  0  0
   -3.4710   -2.2930   -0.7520 H   0  0  0  0  0  0  0  0  0  0  0  0
   -4.9370   -1.3550   -0.4220 H   0  0  0  0  0  0  0  0  0  0  0  0
   -3.9950   -2.0180    0.9240 H   0  0  0  0  0  0  0  0  0  0  0  0
   -1.4140   -2.1090    1.2760 H   0  0  0  0  0  0  0  0  0  0  0  0
    2.2060    1.3830    1.5870 H   0  0  0  0  0  0  0  0  0  0  0  0
  1  3  1  0  0  0  0
  1  6  1  0  0  0  0
  1  9  1  0  0  0  0
  1 26  1  0  0  0  0
  2  4  2  0  0  0  0
  2  9  1  0  0  0  0
  2 15  1  0  0  0  0
  3  6  1  0  0  0  0
  4  5  1  0  0  0  0
  4 16  1  0  0  0  0
  5  8  1  0  0  0  0
  5 13  1  0  0  0  0
  5 34  1  0  0  0  0
  6 20  1  0  0  0  0
  6 35  1  0  0  0  0
  7  8  1  0  0  0  0
  7 12  1  0  0  0  0
  7 19  2  0  0  0  0
  9 10  1  0  0  0  0
  9 11  1  0  0  0  0
 12 13  2  0  0  0  0
 12 23  1  0  0  0  0
 13 14  1  0  0  0  0
 15 17  1  0  0  0  0
 16 17  2  0  0  0  0
 16 30  1  0  0  0  0
 17 18  1  0  0  0  0
 20 21  1  0  0  0  0
 20 22  1  0  0  0  0
 20 23  1  0  0  0  0
 23 24  1  0  0  0  0
 23 25  1  0  0  0  0
 26 27  1  0  0  0  0
 26 28  1  0  0  0  0
 26 29  1  0  0  0  0
 30 31  1  0  0  0  0
 30 32  1  0  0  0  0
 30 33  1  0  0  0  0
M  END
>  <IDNUMBER>
AK-693/21164012

>  <NAME>
3,8-dimethyl-5,9,15-trioxatetracyclo[11.2.1.0~2,6~.0~8,10~]hexadeca-2(6),3,13(16)-trien-14-one

>  <ADD_INFO>
http://www.specs.net/enter.php?specsid=AK-693/21164012

>  <H_ACCEPTORS>
3

>  <H_DONORS>
0

>  <ROTATABLE_BONDS>
0

>  <LOGP>
2.0799999

>  <LOGS>
-2.8800001

>  <TPSA>
51.970001

>  <PRICE>
N07

$$$$
AK-693/21164013
  MOE2011           3D

 29 32  0  0  1  0  0  0  0  0999 V2000
    1.0160   -0.1510   -0.2970 C   0  0  1  0  0  0  0  0  0  0  0  0
    1.8450    0.9030    0.3590 C   0  0  0  0  0  0  0  0  0  0  0  0
   -1.2870    0.3610    0.3210 N   0  3  3  0  0  0  0  0  0  0  0  0
   -1.5130    0.8500    1.1980 H   0  0  0  0  0  0  0  0  0  0  0  0
   -0.1440   -0.6550    0.5930 C   0  0  1  0  0  0  0  0  0  0  0  0
    0.2780    0.4940   -1.4680 C   0  0  0  0  0  0  0  0  0  0  0  0
    0.9330    1.0780   -2.1270 H   0  0  0  0  0  0  0  0  0  0  0  0
   -0.2210   -0.2510   -2.0980 H   0  0  0  0  0  0  0  0  0  0  0  0
    1.9450   -1.1590   -0.6390 O   0  0  0  0  0  0  0  0  0  0  0  0
   -0.7160    1.3610   -0.6770 C   0  0  2  0  0  0  0  0  0  0  0  0
    3.1480   -0.8580   -0.0560 C   0  0  0  0  0  0  0  0  0  0  0  0
    3.0890    0.4790    0.5480 C   0  0  0  0  0  0  0  0  0  0  0  0
    3.9380    0.9920    0.9620 H   0  0  0  0  0  0  0  0  0  0  0  0
    1.2600    2.1990    0.5940 C   0  0  0  0  0  0  0  0  0  0  0  0
    1.8210    2.9640    1.1240 H   0  0  0  0  0  0  0  0  0  0  0  0
    0.0280    2.4340    0.1020 C   0  0  0  0  0  0  0  0  0  0  0  0
   -0.4480    3.4000    0.2430 H   0  0  0  0  0  0  0  0  0  0  0  0
    4.1310   -1.5750   -0.0590 O   0  0  0  0  0  0  0  0  0  0  0  0
   -2.4980   -0.4170   -0.1240 C   0  0  0  0  0  0  0  0  0  0  0  0
   -3.3890    0.0650    0.2860 H   0  0  0  0  0  0  0  0  0  0  0  0
   -2.5280   -0.4190   -1.2180 H   0  0  0  0  0  0  0  0  0  0  0  0
   -0.7550   -2.0000    0.2080 C   0  0  0  0  0  0  0  0  0  0  0  0
   -0.5640   -2.2490   -0.8420 H   0  0  0  0  0  0  0  0  0  0  0  0
   -0.3510   -2.8150    0.8170 H   0  0  0  0  0  0  0  0  0  0  0  0
   -2.2440   -1.8040    0.4320 C   0  0  0  0  0  0  0  0  0  0  0  0
   -2.4760   -1.8350    1.5040 H   0  0  0  0  0  0  0  0  0  0  0  0
   -2.8450   -2.5670   -0.0700 H   0  0  0  0  0  0  0  0  0  0  0  0
    0.0690   -0.6050    1.6680 H   0  0  0  0  0  0  0  0  0  0  0  0
   -1.5230    1.7780   -1.2850 H   0  0  0  0  0  0  0  0  0  0  0  0
  1  2  1  0  0  0  0
  1  5  1  0  0  0  0
  1  6  1  0  0  0  0
  1  9  1  0  0  0  0
  2 12  2  0  0  0  0
  2 14  1  0  0  0  0
  3  4  1  0  0  0  0
  3  5  1  0  0  0  0
  3 10  1  0  0  0  0
  3 19  1  0  0  0  0
  5 22  1  0  0  0  0
  5 28  1  0  0  0  0
  6  7  1  0  0  0  0
  6  8  1  0  0  0  0
  6 10  1  0  0  0  0
  9 11  1  0  0  0  0
 10 16  1  0  0  0  0
 10 29  1  0  0  0  0
 11 12  1  0  0  0  0
 11 18  2  0  0  0  0
 12 13  1  0  0  0  0
 14 15  1  0  0  0  0
 14 16  2  0  0  0  0
 16 17  1  0  0  0  0
 19 20  1  0  0  0  0
 19 21  1  0  0  0  0
 19 25  1  0  0  0  0
 22 23  1  0  0  0  0
 22 24  1  0  0  0  0
 22 25  1  0  0  0  0
 25 26  1  0  0  0  0
 25 27  1  0  0  0  0
M  CHG  1   3   1
M  END
>  <IDNUMBER>
AK-693/21164013

>  <NAME>
2-oxa-9-azatetracyclo[6.5.1.0~1,5~.0~9,13~]tetradeca-4,6-dien-3-one

>  <ADD_INFO>
http://www.specs.net/enter.php?specsid=AK-693/21164013

>  <H_ACCEPTORS>
3

>  <H_DONORS>
0

>  <ROTATABLE_BONDS>
0

>  <LOGP>
0.19

>  <LOGS>
0.16

>  <TPSA>
29.540001

>  <PRICE>
N07

>  <SALTDATA>
HCl

$$$$
AK-693/21164015
  MOE2011           3D

 19 19  0  0  0  0  0  0  0  0999 V2000
    0.9410   -1.6040    0.2060 C   0  0  0  0  0  0  0  0  0  0  0  0
    1.7850   -2.2780    0.1450 H   0  0  0  0  0  0  0  0  0  0  0  0
   -0.4050   -2.1890    0.0940 C   0  0  0  0  0  0  0  0  0  0  0  0
    1.0890   -0.2870    0.3700 C   0  0  0  0  0  0  0  0  0  0  0  0
   -0.0510    0.5750    0.5120 C   0  0  0  0  0  0  0  0  0  0  0  0
    0.1130    1.6300    0.7050 H   0  0  0  0  0  0  0  0  0  0  0  0
   -1.4700   -1.3360    0.1920 O   0  0  0  0  0  0  0  0  0  0  0  0
   -1.2810    0.0520    0.4170 C   0  0  0  0  0  0  0  0  0  0  0  0
   -0.5420   -3.3950   -0.0850 O   0  0  0  0  0  0  0  0  0  0  0  0
    2.3240    0.2990    0.5260 O   0  0  0  0  0  0  0  0  0  0  0  0
   -2.5460    0.8430    0.5570 C   0  0  0  0  0  0  0  0  0  0  0  0
   -2.3440    1.9050    0.7320 H   0  0  0  0  0  0  0  0  0  0  0  0
   -3.1360    0.4690    1.3990 H   0  0  0  0  0  0  0  0  0  0  0  0
   -3.3350    0.7370   -0.6220 O   0  0  0  0  0  0  0  0  0  0  0  0
   -2.7330    0.7270   -1.3840 H   0  0  0  0  0  0  0  0  0  0  0  0
    2.7910    0.8500   -0.7060 C   0  0  0  0  0  0  0  0  0  0  0  0
    3.7810    1.2800   -0.5290 H   0  0  0  0  0  0  0  0  0  0  0  0
    2.1300    1.6490   -1.0580 H   0  0  0  0  0  0  0  0  0  0  0  0
    2.8880    0.0720   -1.4710 H   0  0  0  0  0  0  0  0  0  0  0  0
  1  2  1  0  0  0  0
  1  3  1  0  0  0  0
  1  4  2  0  0  0  0
  3  7  1  0  0  0  0
  3  9  2  0  0  0  0
  4  5  1  0  0  0  0
  4 10  1  0  0  0  0
  5  6  1  0  0  0  0
  5  8  2  0  0  0  0
  7  8  1  0  0  0  0
  8 11  1  0  0  0  0
 10 16  1  0  0  0  0
 11 12  1  0  0  0  0
 11 13  1  0  0  0  0
 11 14  1  0  0  0  0
 14 15  1  0  0  0  0
 16 17  1  0  0  0  0
 16 18  1  0  0  0  0
 16 19  1  0  0  0  0
M  END
>  <IDNUMBER>
AK-693/21164015

>  <NAME>
6-(hydroxymethyl)-4-methoxy-2H-pyran-2-one

>  <ADD_INFO>
http://www.specs.net/enter.php?specsid=AK-693/21164015

>  <H_ACCEPTORS>
4

>  <H_DONORS>
1

>  <ROTATABLE_BONDS>
2

>  <LOGP>
-1.87

>  <LOGS>
0.81

>  <TPSA>
55.759998

>  <PRICE>
N07

$$$$
AK-693/21164018
  MOE2011           3D

 25 27  0  0  0  0  0  0  0  0999 V2000
   -0.0230   -0.9830   -0.0030 C   0  0  0  0  0  0  0  0  0  0  0  0
    1.3760   -0.6540   -0.0040 C   0  0  0  0  0  0  0  0  0  0  0  0
   -0.5170   -2.2690    0.0010 C   0  0  0  0  0  0  0  0  0  0  0  0
   -0.0310   -3.2350    0.0020 H   0  0  0  0  0  0  0  0  0  0  0  0
    3.6210   -0.8020   -0.0050 N   0  0  0  0  0  0  0  0  0  0  0  0
    1.8620    0.6220    0.0030 O   0  0  0  0  0  0  0  0  0  0  0  0
   -1.8850   -2.1900    0.0050 N   0  0  0  0  0  0  0  0  0  0  0  0
   -2.5140   -2.9820    0.0090 H   0  0  0  0  0  0  0  0  0  0  0  0
   -1.1330   -0.0870   -0.0040 C   0  0  0  0  0  0  0  0  0  0  0  0
    2.4470   -1.5150   -0.0090 C   0  0  0  0  0  0  0  0  0  0  0  0
    2.4490   -2.5960   -0.0150 H   0  0  0  0  0  0  0  0  0  0  0  0
    3.2200    0.4540    0.0020 C   0  0  0  0  0  0  0  0  0  0  0  0
   -2.2880   -0.8740    0.0020 C   0  0  0  0  0  0  0  0  0  0  0  0
   -1.2820    1.3170   -0.0080 C   0  0  0  0  0  0  0  0  0  0  0  0
   -0.4110    1.9650   -0.0130 H   0  0  0  0  0  0  0  0  0  0  0  0
    4.0330    1.6850    0.0090 C   0  0  0  0  0  0  0  0  0  0  0  0
    5.1000    1.4440    0.0180 H   0  0  0  0  0  0  0  0  0  0  0  0
    3.8100    2.2860    0.8950 H   0  0  0  0  0  0  0  0  0  0  0  0
    3.8250    2.2860   -0.8810 H   0  0  0  0  0  0  0  0  0  0  0  0
   -3.5780   -0.3290    0.0040 C   0  0  0  0  0  0  0  0  0  0  0  0
   -4.4610   -0.9600    0.0090 H   0  0  0  0  0  0  0  0  0  0  0  0
   -2.5650    1.8780   -0.0070 C   0  0  0  0  0  0  0  0  0  0  0  0
   -2.6780    2.9590   -0.0100 H   0  0  0  0  0  0  0  0  0  0  0  0
   -3.6940    1.0630    0.0000 C   0  0  0  0  0  0  0  0  0  0  0  0
   -4.6830    1.5170    0.0010 H   0  0  0  0  0  0  0  0  0  0  0  0
  1  2  1  0  0  0  0
  1  3  2  0  0  0  0
  1  9  1  0  0  0  0
  2  6  1  0  0  0  0
  2 10  2  0  0  0  0
  3  4  1  0  0  0  0
  3  7  1  0  0  0  0
  5 10  1  0  0  0  0
  5 12  2  0  0  0  0
  6 12  1  0  0  0  0
  7  8  1  0  0  0  0
  7 13  1  0  0  0  0
  9 13  2  0  0  0  0
  9 14  1  0  0  0  0
 10 11  1  0  0  0  0
 12 16  1  0  0  0  0
 13 20  1  0  0  0  0
 14 15  1  0  0  0  0
 14 22  2  0  0  0  0
 16 17  1  0  0  0  0
 16 18  1  0  0  0  0
 16 19  1  0  0  0  0
 20 21  1  0  0  0  0
 20 24  2  0  0  0  0
 22 23  1  0  0  0  0
 22 24  1  0  0  0  0
 24 25  1  0  0  0  0
M  END
>  <IDNUMBER>
AK-693/21164018

>  <NAME>
3-(2-methyl-1,3-oxazol-5-yl)-1H-indole

>  <ADD_INFO>
http://www.specs.net/enter.php?specsid=AK-693/21164018

>  <H_ACCEPTORS>
2

>  <H_DONORS>
1

>  <ROTATABLE_BONDS>
1

>  <LOGP>
2.5899999

>  <LOGS>
-2.8499999

>  <TPSA>
41.82

>  <PRICE>
N07

$$$$
AK-693/21169004
  MOE2011           3D

 59 61  0  0  0  0  0  0  0  0999 V2000
   -3.6750   -1.4340   -0.1800 C   0  0  0  0  0  0  0  0  0  0  0  0
   -3.9410   -0.2890   -0.8400 N   0  0  0  0  0  0  0  0  0  0  0  0
   -2.5590   -2.2230   -0.5250 C   0  0  0  0  0  0  0  0  0  0  0  0
   -4.5290   -1.8450    0.8710 C   0  0  0  0  0  0  0  0  0  0  0  0
   -5.6060   -1.1270    1.2270 N   0  0  0  0  0  0  0  0  0  0  0  0
   -2.3050   -3.3910    0.2030 C   0  0  0  0  0  0  0  0  0  0  0  0
   -5.8610    0.0100    0.5580 C   0  0  0  0  0  0  0  0  0  0  0  0
   -4.2610   -3.0150    1.5610 C   0  0  0  0  0  0  0  0  0  0  0  0
   -4.9170   -3.3300    2.3670 H   0  0  0  0  0  0  0  0  0  0  0  0
   -3.1570   -3.7770    1.2300 C   0  0  0  0  0  0  0  0  0  0  0  0
   -5.0200    0.4320   -0.4840 C   0  0  0  0  0  0  0  0  0  0  0  0
   -8.4820    2.7990    0.6030 C   0  0  0  0  0  0  0  0  0  0  0  0
   -7.2730    1.9780    0.2200 C   0  0  0  0  0  0  0  0  0  0  0  0
   -6.9680    0.7830    0.8920 C   0  0  0  0  0  0  0  0  0  0  0  0
   -7.6160    0.4490    1.7020 H   0  0  0  0  0  0  0  0  0  0  0  0
   -8.6880    3.8640   -0.0590 O   0  0  0  0  0  0  0  0  0  0  0  0
   -6.4240    2.3830   -0.8140 C   0  0  0  0  0  0  0  0  0  0  0  0
   -6.6300    3.3040   -1.3570 H   0  0  0  0  0  0  0  0  0  0  0  0
   -5.3110    1.6120   -1.1550 C   0  0  0  0  0  0  0  0  0  0  0  0
   -4.6620    1.9420   -1.9620 H   0  0  0  0  0  0  0  0  0  0  0  0
   -1.2390   -4.2240   -0.0150 O   0  0  0  0  0  0  0  0  0  0  0  0
   -0.6530   -3.8370   -0.6870 H   0  0  0  0  0  0  0  0  0  0  0  0
   -2.8940   -4.9230    1.9240 O   0  0  0  0  0  0  0  0  0  0  0  0
   -2.0780   -5.2700    1.5070 H   0  0  0  0  0  0  0  0  0  0  0  0
   -9.1980    2.3610    1.5560 O   0  5  0  0  0  0  0  0  0  0  0  0
   -1.6540   -1.7750   -1.6550 C   0  0  0  0  0  0  0  0  0  0  0  0
   -1.3200   -2.6500   -2.2260 H   0  0  0  0  0  0  0  0  0  0  0  0
   -2.2150   -1.1740   -2.3810 H   0  0  0  0  0  0  0  0  0  0  0  0
   -0.4500   -0.9810   -1.1380 C   0  0  0  0  0  0  0  0  0  0  0  0
   -0.7960   -0.0870   -0.6030 H   0  0  0  0  0  0  0  0  0  0  0  0
    0.1060   -1.5880   -0.4150 H   0  0  0  0  0  0  0  0  0  0  0  0
    7.4800    2.2610    1.4140 C   0  0  0  0  0  0  0  0  0  0  0  0
    8.0740    1.5750    2.0290 H   0  0  0  0  0  0  0  0  0  0  0  0
    8.0150    2.3940    0.4660 H   0  0  0  0  0  0  0  0  0  0  0  0
    6.0980    1.6600    1.1510 C   0  0  0  0  0  0  0  0  0  0  0  0
    5.5120    2.3600    0.5450 H   0  0  0  0  0  0  0  0  0  0  0  0
    5.5680    1.5290    2.1020 H   0  0  0  0  0  0  0  0  0  0  0  0
    0.4690   -0.5650   -2.2890 C   0  0  0  0  0  0  0  0  0  0  0  0
    0.8310   -1.4570   -2.8140 H   0  0  0  0  0  0  0  0  0  0  0  0
   -0.1110    0.0160   -3.0170 H   0  0  0  0  0  0  0  0  0  0  0  0
    3.9000    0.3560   -0.6680 C   0  0  0  0  0  0  0  0  0  0  0  0
    4.4000    0.5900   -1.6150 H   0  0  0  0  0  0  0  0  0  0  0  0
    3.6100    1.3080   -0.2080 H   0  0  0  0  0  0  0  0  0  0  0  0
    4.8660   -0.3960    0.2500 C   0  0  0  0  0  0  0  0  0  0  0  0
    4.3970   -0.5550    1.2290 H   0  0  0  0  0  0  0  0  0  0  0  0
    5.0610   -1.3900   -0.1710 H   0  0  0  0  0  0  0  0  0  0  0  0
    6.2110    0.3130    0.4350 C   0  0  0  0  0  0  0  0  0  0  0  0
    6.8670   -0.3480    1.0140 H   0  0  0  0  0  0  0  0  0  0  0  0
    6.6880    0.4530   -0.5430 H   0  0  0  0  0  0  0  0  0  0  0  0
    2.6430   -0.4730   -0.9430 C   0  0  0  0  0  0  0  0  0  0  0  0
    2.1620   -0.7200    0.0100 H   0  0  0  0  0  0  0  0  0  0  0  0
    2.9260   -1.4180   -1.4210 H   0  0  0  0  0  0  0  0  0  0  0  0
    1.6630    0.2840   -1.8430 C   0  0  0  0  0  0  0  0  0  0  0  0
    2.1910    0.6250   -2.7420 H   0  0  0  0  0  0  0  0  0  0  0  0
    1.3040    1.1830   -1.3270 H   0  0  0  0  0  0  0  0  0  0  0  0
    7.3790    3.6030    2.1220 C   0  0  0  0  0  0  0  0  0  0  0  0
    6.8750    3.5000    3.0880 H   0  0  0  0  0  0  0  0  0  0  0  0
    6.8210    4.3250    1.5170 H   0  0  0  0  0  0  0  0  0  0  0  0
    8.3780    4.0120    2.3020 H   0  0  0  0  0  0  0  0  0  0  0  0
  1  2  1  0  0  0  0
  1  3  2  0  0  0  0
  1  4  1  0  0  0  0
  2 11  2  0  0  0  0
  3  6  1  0  0  0  0
  3 26  1  0  0  0  0
  4  5  1  0  0  0  0
  4  8  2  0  0  0  0
  5  7  2  0  0  0  0
  6 10  2  0  0  0  0
  6 21  1  0  0  0  0
  7 11  1  0  0  0  0
  7 14  1  0  0  0  0
  8  9  1  0  0  0  0
  8 10  1  0  0  0  0
 10 23  1  0  0  0  0
 11 19  1  0  0  0  0
 12 13  1  0  0  0  0
 12 16  2  0  0  0  0
 12 25  1  0  0  0  0
 13 14  2  0  0  0  0
 13 17  1  0  0  0  0
 14 15  1  0  0  0  0
 17 18  1  0  0  0  0
 17 19  2  0  0  0  0
 19 20  1  0  0  0  0
 21 22  1  0  0  0  0
 23 24  1  0  0  0  0
 26 27  1  0  0  0  0
 26 28  1  0  0  0  0
 26 29  1  0  0  0  0
 29 30  1  0  0  0  0
 29 31  1  0  0  0  0
 29 38  1  0  0  0  0
 32 33  1  0  0  0  0
 32 34  1  0  0  0  0
 32 35  1  0  0  0  0
 32 56  1  0  0  0  0
 35 36  1  0  0  0  0
 35 37  1  0  0  0  0
 35 47  1  0  0  0  0
 38 39  1  0  0  0  0
 38 40  1  0  0  0  0
 38 53  1  0  0  0  0
 41 42  1  0  0  0  0
 41 43  1  0  0  0  0
 41 44  1  0  0  0  0
 41 50  1  0  0  0  0
 44 45  1  0  0  0  0
 44 46  1  0  0  0  0
 44 47  1  0  0  0  0
 47 48  1  0  0  0  0
 47 49  1  0  0  0  0
 50 51  1  0  0  0  0
 50 52  1  0  0  0  0
 50 53  1  0  0  0  0
 53 54  1  0  0  0  0
 53 55  1  0  0  0  0
 56 57  1  0  0  0  0
 56 58  1  0  0  0  0
 56 59  1  0  0  0  0
M  CHG  1  25  -1
M  END
>  <IDNUMBER>
AK-693/21169004

>  <NAME>
Phenazine, derivative of

>  <ADD_INFO>
http://www.specs.net/enter.php?specsid=AK-693/21169004

>  <H_ACCEPTORS>
4

>  <H_DONORS>
3

>  <ROTATABLE_BONDS>
11

>  <LOGP>
6.6700001

>  <LOGS>
-8.4200001

>  <TPSA>
103.54

>  <PRICE>
N09

$$$$
AK-693/21169007
  MOE2011           3D

 42 44  0  0  1  0  0  0  0  0999 V2000
   -0.9440   -1.4920    0.2560 C   0  0  1  0  0  0  0  0  0  0  0  0
   -0.7620   -2.9000    0.2510 O   0  0  0  0  0  0  0  0  0  0  0  0
    0.4080   -2.1360   -0.1230 C   0  0  2  0  0  0  0  0  0  0  0  0
   -1.8040   -0.8380   -0.7730 C   0  0  1  0  0  0  0  0  0  0  0  0
   -3.1780   -1.1740   -0.5400 O   0  0  0  0  0  0  0  0  0  0  0  0
   -3.8780   -0.1010   -0.0820 C   0  0  0  0  0  0  0  0  0  0  0  0
   -1.7420    0.7020   -0.7440 C   0  0  3  0  0  0  0  0  0  0  0  0
   -2.9960    1.1120    0.0330 C   0  0  3  0  0  0  0  0  0  0  0  0
   -0.4200    1.3390   -0.2580 C   0  0  0  0  0  0  0  0  0  0  0  0
   -0.5140    2.4320   -0.2920 H   0  0  0  0  0  0  0  0  0  0  0  0
   -0.2520    1.0900    0.7890 H   0  0  0  0  0  0  0  0  0  0  0  0
   -5.0620   -0.1380    0.2160 O   0  0  0  0  0  0  0  0  0  0  0  0
    1.5240   -2.0710    0.8940 C   0  0  0  0  0  0  0  0  0  0  0  0
    1.3750   -2.8870    1.6130 H   0  0  0  0  0  0  0  0  0  0  0  0
    2.4910   -2.2660    0.4160 H   0  0  0  0  0  0  0  0  0  0  0  0
    0.8290   -2.5800   -1.5020 C   0  0  0  0  0  0  0  0  0  0  0  0
    1.6270   -1.9450   -1.8980 H   0  0  0  0  0  0  0  0  0  0  0  0
    0.0050   -2.5780   -2.2190 H   0  0  0  0  0  0  0  0  0  0  0  0
    1.2190   -3.6030   -1.4570 H   0  0  0  0  0  0  0  0  0  0  0  0
    0.7690    0.9260   -1.1250 C   0  0  0  0  0  0  0  0  0  0  0  0
    0.8120    1.6140   -1.9810 H   0  0  0  0  0  0  0  0  0  0  0  0
    0.5660   -0.0290   -1.6030 H   0  0  0  0  0  0  0  0  0  0  0  0
   -2.8150    1.4800    1.4990 C   0  0  0  0  0  0  0  0  0  0  0  0
   -2.2010    2.3790    1.6090 H   0  0  0  0  0  0  0  0  0  0  0  0
   -2.3530    0.6710    2.0720 H   0  0  0  0  0  0  0  0  0  0  0  0
   -3.7850    1.6870    1.9650 H   0  0  0  0  0  0  0  0  0  0  0  0
    2.1600    0.8390   -0.4620 C   0  0  3  0  0  0  0  0  0  0  0  0
    1.6150   -0.7550    1.6710 C   0  0  0  0  0  0  0  0  0  0  0  0
    0.6390   -0.4570    2.0620 H   0  0  0  0  0  0  0  0  0  0  0  0
    2.1950   -0.9730    2.5800 H   0  0  0  0  0  0  0  0  0  0  0  0
    2.2950    0.4670    1.0310 C   0  0  0  0  0  0  0  0  0  0  0  0
    3.3720    0.3460    1.2210 H   0  0  0  0  0  0  0  0  0  0  0  0
    2.0080    1.3400    1.6350 H   0  0  0  0  0  0  0  0  0  0  0  0
    2.8950    2.1740   -0.6850 C   0  0  0  0  0  0  0  0  0  0  0  0
    3.9160    2.1330   -0.2900 H   0  0  0  0  0  0  0  0  0  0  0  0
    2.3710    2.9990   -0.1900 H   0  0  0  0  0  0  0  0  0  0  0  0
    2.9670    2.4090   -1.7520 H   0  0  0  0  0  0  0  0  0  0  0  0
   -1.1290   -1.0910    1.2410 H   0  0  0  0  0  0  0  0  0  0  0  0
   -1.5630   -1.1900   -1.7790 H   0  0  0  0  0  0  0  0  0  0  0  0
   -1.9010    1.0370   -1.7800 H   0  0  0  0  0  0  0  0  0  0  0  0
   -3.4830    1.9420   -0.4920 H   0  0  0  0  0  0  0  0  0  0  0  0
    2.7280    0.0870   -1.0270 H   0  0  0  0  0  0  0  0  0  0  0  0
  1  2  1  0  0  0  0
  1  3  1  0  0  0  0
  1  4  1  0  0  0  0
  1 38  1  0  0  0  0
  2  3  1  0  0  0  0
  3 13  1  0  0  0  0
  3 16  1  0  0  0  0
  4  5  1  0  0  0  0
  4  7  1  0  0  0  0
  4 39  1  0  0  0  0
  5  6  1  0  0  0  0
  6  8  1  0  0  0  0
  6 12  2  0  0  0  0
  7  8  1  0  0  0  0
  7  9  1  0  0  0  0
  7 40  1  0  0  0  0
  8 23  1  0  0  0  0
  8 41  1  0  0  0  0
  9 10  1  0  0  0  0
  9 11  1  0  0  0  0
  9 20  1  0  0  0  0
 13 14  1  0  0  0  0
 13 15  1  0  0  0  0
 13 28  1  0  0  0  0
 16 17  1  0  0  0  0
 16 18  1  0  0  0  0
 16 19  1  0  0  0  0
 20 21  1  0  0  0  0
 20 22  1  0  0  0  0
 20 27  1  0  0  0  0
 23 24  1  0  0  0  0
 23 25  1  0  0  0  0
 23 26  1  0  0  0  0
 27 31  1  0  0  0  0
 27 34  1  0  0  0  0
 27 42  1  0  0  0  0
 28 29  1  0  0  0  0
 28 30  1  0  0  0  0
 28 31  1  0  0  0  0
 31 32  1  0  0  0  0
 31 33  1  0  0  0  0
 34 35  1  0  0  0  0
 34 36  1  0  0  0  0
 34 37  1  0  0  0  0
M  END
>  <IDNUMBER>
AK-693/21169007

>  <NAME>
Tetrahydroparthenolide

>  <ADD_INFO>
http://www.specs.net/enter.php?specsid=AK-693/21169007

>  <H_ACCEPTORS>
3

>  <H_DONORS>
0

>  <ROTATABLE_BONDS>
0

>  <LOGP>
2.79

>  <LOGS>
-3.4300001

>  <TPSA>
38.830002

>  <PRICE>
N07

$$$$
AK-693/21169012
  MOE2011           3D

 74 75  0  0  1  0  0  0  0  0999 V2000
   -2.4910   -1.6300    0.7210 C   0  0  0  0  0  0  0  0  0  0  0  0
   -2.3320    0.8410    0.5900 C   0  0  0  0  0  0  0  0  0  0  0  0
   -3.0470   -0.3690    0.4440 C   0  0  0  0  0  0  0  0  0  0  0  0
   -3.0740    2.1120    0.3300 C   0  0  0  0  0  0  0  0  0  0  0  0
   -1.1840   -1.6840    1.2270 C   0  0  0  0  0  0  0  0  0  0  0  0
   -0.4110   -0.5270    1.3620 C   0  0  0  0  0  0  0  0  0  0  0  0
   -0.9830    0.7140    0.9960 C   0  0  0  0  0  0  0  0  0  0  0  0
   -3.1950   -2.9390    0.5280 C   0  0  0  0  0  0  0  0  0  0  0  0
   -4.3950   -0.3520    0.0200 O   0  0  0  0  0  0  0  0  0  0  0  0
   -4.3380    2.0410   -0.1230 C   0  0  0  0  0  0  0  0  0  0  0  0
   -4.9210    2.9320   -0.3390 H   0  0  0  0  0  0  0  0  0  0  0  0
   -5.0700    0.7950   -0.3330 C   0  0  0  0  0  0  0  0  0  0  0  0
   -2.5170    3.5080    0.5730 C   0  0  3  0  0  0  0  0  0  0  0  0
    1.0210   -0.6180    1.8570 C   0  0  0  0  0  0  0  0  0  0  0  0
    1.2800    0.2950    2.4090 H   0  0  0  0  0  0  0  0  0  0  0  0
    1.1020   -1.4030    2.6140 H   0  0  0  0  0  0  0  0  0  0  0  0
   -1.2780    3.6570   -0.1540 O   0  0  0  0  0  0  0  0  0  0  0  0
    2.0120   -0.7860    0.7330 C   0  0  0  0  0  0  0  0  0  0  0  0
    2.0420    0.0820    0.0780 H   0  0  0  0  0  0  0  0  0  0  0  0
   -1.3590    4.3040   -1.3580 C   0  0  0  0  0  0  0  0  0  0  0  0
   -2.8150   -3.8610    1.2600 O   0  0  0  0  0  0  0  0  0  0  0  0
   -6.2150    0.7860   -0.7670 O   0  0  0  0  0  0  0  0  0  0  0  0
    2.8280   -1.8290    0.4740 C   0  0  0  0  0  0  0  0  0  0  0  0
   -2.3740    4.7550   -1.8670 O   0  0  0  0  0  0  0  0  0  0  0  0
    6.3590    0.4800   -0.3680 C   0  0  0  0  0  0  0  0  0  0  0  0
    5.0200    0.3550   -0.4340 C   0  0  0  0  0  0  0  0  0  0  0  0
    4.4150    0.9610    0.2390 H   0  0  0  0  0  0  0  0  0  0  0  0
   -0.6180   -2.8820    1.6020 O   0  0  0  0  0  0  0  0  0  0  0  0
   -1.3410   -3.5590    1.6100 H   0  0  0  0  0  0  0  0  0  0  0  0
   -0.1150    1.7740    1.0520 O   0  0  0  0  0  0  0  0  0  0  0  0
   -0.4430    2.4920    0.4780 H   0  0  0  0  0  0  0  0  0  0  0  0
   -4.2440   -3.1550   -0.5660 C   0  0  3  0  0  0  0  0  0  0  0  0
    4.2250   -0.5330   -1.3540 C   0  0  0  0  0  0  0  0  0  0  0  0
    3.3480    0.0180   -1.7150 H   0  0  0  0  0  0  0  0  0  0  0  0
    4.8010   -0.7610   -2.2590 H   0  0  0  0  0  0  0  0  0  0  0  0
   -2.3070    3.8140    2.0690 C   0  0  0  0  0  0  0  0  0  0  0  0
   -3.2570    3.6970    2.6040 H   0  0  0  0  0  0  0  0  0  0  0  0
   -1.5980    3.1190    2.5280 H   0  0  0  0  0  0  0  0  0  0  0  0
    3.8090   -1.8560   -0.6920 C   0  0  0  0  0  0  0  0  0  0  0  0
    4.7270   -2.3600   -0.3580 H   0  0  0  0  0  0  0  0  0  0  0  0
    3.3740   -2.5020   -1.4670 H   0  0  0  0  0  0  0  0  0  0  0  0
    0.0040    4.3820   -1.9760 C   0  0  0  0  0  0  0  0  0  0  0  0
    0.6690    4.9640   -1.3320 H   0  0  0  0  0  0  0  0  0  0  0  0
   -0.0660    4.8800   -2.9480 H   0  0  0  0  0  0  0  0  0  0  0  0
    0.4000    3.3750   -2.1290 H   0  0  0  0  0  0  0  0  0  0  0  0
    2.8560   -3.1000    1.2870 C   0  0  0  0  0  0  0  0  0  0  0  0
    3.8420   -3.2300    1.7450 H   0  0  0  0  0  0  0  0  0  0  0  0
    2.6610   -3.9610    0.6390 H   0  0  0  0  0  0  0  0  0  0  0  0
    2.1190   -3.1310    2.0900 H   0  0  0  0  0  0  0  0  0  0  0  0
    7.3410   -0.2980   -1.1990 C   0  0  0  0  0  0  0  0  0  0  0  0
    7.8790    0.3750   -1.8740 H   0  0  0  0  0  0  0  0  0  0  0  0
    6.8740   -1.0790   -1.8040 H   0  0  0  0  0  0  0  0  0  0  0  0
    8.0720   -0.7930   -0.5510 H   0  0  0  0  0  0  0  0  0  0  0  0
    6.9920    1.4400    0.6050 C   0  0  0  0  0  0  0  0  0  0  0  0
    7.6320    0.9000    1.3100 H   0  0  0  0  0  0  0  0  0  0  0  0
    6.2480    1.9930    1.1890 H   0  0  0  0  0  0  0  0  0  0  0  0
    7.6040    2.1730    0.0690 H   0  0  0  0  0  0  0  0  0  0  0  0
   -3.6970   -2.8440   -1.9710 C   0  0  0  0  0  0  0  0  0  0  0  0
   -4.5090   -2.9490   -2.7010 H   0  0  0  0  0  0  0  0  0  0  0  0
   -3.3710   -1.8000   -2.0290 H   0  0  0  0  0  0  0  0  0  0  0  0
   -4.8100   -4.5790   -0.4900 C   0  0  0  0  0  0  0  0  0  0  0  0
   -5.5550   -4.7450   -1.2760 H   0  0  0  0  0  0  0  0  0  0  0  0
   -5.3010   -4.7440    0.4760 H   0  0  0  0  0  0  0  0  0  0  0  0
   -4.0290   -5.3390   -0.5890 H   0  0  0  0  0  0  0  0  0  0  0  0
   -1.7820    5.2270    2.2940 C   0  0  0  0  0  0  0  0  0  0  0  0
   -2.4640    5.9710    1.8710 H   0  0  0  0  0  0  0  0  0  0  0  0
   -0.7960    5.3620    1.8380 H   0  0  0  0  0  0  0  0  0  0  0  0
   -1.6860    5.4260    3.3660 H   0  0  0  0  0  0  0  0  0  0  0  0
   -2.5340   -3.7250   -2.4120 C   0  0  0  0  0  0  0  0  0  0  0  0
   -2.8330   -4.7740   -2.4950 H   0  0  0  0  0  0  0  0  0  0  0  0
   -1.6910   -3.6570   -1.7170 H   0  0  0  0  0  0  0  0  0  0  0  0
   -2.1800   -3.4060   -3.3980 H   0  0  0  0  0  0  0  0  0  0  0  0
   -3.2350    4.2620    0.2220 H   0  0  0  0  0  0  0  0  0  0  0  0
   -5.0950   -2.5000   -0.3570 H   0  0  0  0  0  0  0  0  0  0  0  0
  1  3  2  0  0  0  0
  1  5  1  0  0  0  0
  1  8  1  0  0  0  0
  2  3  1  0  0  0  0
  2  4  1  0  0  0  0
  2  7  2  0  0  0  0
  3  9  1  0  0  0  0
  4 10  2  0  0  0  0
  4 13  1  0  0  0  0
  5  6  2  0  0  0  0
  5 28  1  0  0  0  0
  6  7  1  0  0  0  0
  6 14  1  0  0  0  0
  7 30  1  0  0  0  0
  8 21  2  0  0  0  0
  8 32  1  0  0  0  0
  9 12  1  0  0  0  0
 10 11  1  0  0  0  0
 10 12  1  0  0  0  0
 12 22  2  0  0  0  0
 13 17  1  0  0  0  0
 13 36  1  0  0  0  0
 13 73  1  0  0  0  0
 14 15  1  0  0  0  0
 14 16  1  0  0  0  0
 14 18  1  0  0  0  0
 17 20  1  0  0  0  0
 18 19  1  0  0  0  0
 18 23  2  0  0  0  0
 20 24  2  0  0  0  0
 20 42  1  0  0  0  0
 23 39  1  0  0  0  0
 23 46  1  0  0  0  0
 25 26  2  0  0  0  0
 25 50  1  0  0  0  0
 25 54  1  0  0  0  0
 26 27  1  0  0  0  0
 26 33  1  0  0  0  0
 28 29  1  0  0  0  0
 30 31  1  0  0  0  0
 32 58  1  0  0  0  0
 32 61  1  0  0  0  0
 32 74  1  0  0  0  0
 33 34  1  0  0  0  0
 33 35  1  0  0  0  0
 33 39  1  0  0  0  0
 36 37  1  0  0  0  0
 36 38  1  0  0  0  0
 36 65  1  0  0  0  0
 39 40  1  0  0  0  0
 39 41  1  0  0  0  0
 42 43  1  0  0  0  0
 42 44  1  0  0  0  0
 42 45  1  0  0  0  0
 46 47  1  0  0  0  0
 46 48  1  0  0  0  0
 46 49  1  0  0  0  0
 50 51  1  0  0  0  0
 50 52  1  0  0  0  0
 50 53  1  0  0  0  0
 54 55  1  0  0  0  0
 54 56  1  0  0  0  0
 54 57  1  0  0  0  0
 58 59  1  0  0  0  0
 58 60  1  0  0  0  0
 58 69  1  0  0  0  0
 61 62  1  0  0  0  0
 61 63  1  0  0  0  0
 61 64  1  0  0  0  0
 65 66  1  0  0  0  0
 65 67  1  0  0  0  0
 65 68  1  0  0  0  0
 69 70  1  0  0  0  0
 69 71  1  0  0  0  0
 69 72  1  0  0  0  0
M  END
>  <IDNUMBER>
AK-693/21169012

>  <NAME>
Surangin B

>  <ADD_INFO>
http://www.specs.net/enter.php?specsid=AK-693/21169012

>  <H_ACCEPTORS>
4

>  <H_DONORS>
2

>  <ROTATABLE_BONDS>
12

>  <LOGP>
8.0600004

>  <LOGS>
-9.1300001

>  <TPSA>
110.13

>  <PRICE>
N07

$$$$
AK-693/21169018
  MOE2011           3D

 58 60  0  0  1  0  0  0  0  0999 V2000
   -2.9310   -1.0210    0.3240 C   0  0  0  0  0  0  0  0  0  0  0  0
   -3.6290   -2.1940   -0.2230 C   0  0  0  0  0  0  0  0  0  0  0  0
   -1.6060   -0.9940    0.5630 C   0  0  0  0  0  0  0  0  0  0  0  0
   -3.6760    0.1350    0.6020 O   0  0  0  0  0  0  0  0  0  0  0  0
   -4.9900   -2.1070   -0.4220 N   0  0  0  0  0  0  0  0  0  0  0  0
   -5.4800   -2.9090   -0.7980 H   0  0  0  0  0  0  0  0  0  0  0  0
   -2.9560   -3.3160   -0.5190 C   0  0  0  0  0  0  0  0  0  0  0  0
   -3.4370   -4.1980   -0.9260 H   0  0  0  0  0  0  0  0  0  0  0  0
   -9.2280    0.3770   -0.2080 N   0  3  0  0  0  0  0  0  0  0  0  0
   -0.7950   -2.2100    0.2830 C   0  0  0  0  0  0  0  0  0  0  0  0
   -1.5040   -3.4130   -0.3050 C   0  0  0  0  0  0  0  0  0  0  0  0
   -5.7110   -0.9530   -0.1230 C   0  0  0  0  0  0  0  0  0  0  0  0
   -5.0340    0.1560    0.3890 C   0  0  0  0  0  0  0  0  0  0  0  0
   -7.7770    0.3040   -0.0010 C   0  0  0  0  0  0  0  0  0  0  0  0
   -7.0920   -0.8790   -0.3200 C   0  0  0  0  0  0  0  0  0  0  0  0
   -7.6230   -1.7410   -0.7170 H   0  0  0  0  0  0  0  0  0  0  0  0
   -9.7940   -0.6400   -0.6320 O   0  5  0  0  0  0  0  0  0  0  0  0
   -9.7950    1.4460    0.0530 O   0  0  0  0  0  0  0  0  0  0  0  0
    0.4050   -2.2650    0.5100 O   0  0  0  0  0  0  0  0  0  0  0  0
   -0.8900   -4.4300   -0.5890 O   0  0  0  0  0  0  0  0  0  0  0  0
   -5.7130    1.3350    0.7050 C   0  0  0  0  0  0  0  0  0  0  0  0
   -5.1690    2.1880    1.1020 H   0  0  0  0  0  0  0  0  0  0  0  0
   -7.0930    1.4140    0.5110 C   0  0  0  0  0  0  0  0  0  0  0  0
   -7.6100    2.3380    0.7620 H   0  0  0  0  0  0  0  0  0  0  0  0
   -0.8700    0.1910    1.1370 C   0  0  0  0  0  0  0  0  0  0  0  0
   -1.5620    0.8580    1.6660 H   0  0  0  0  0  0  0  0  0  0  0  0
   -0.1600   -0.1510    1.9010 H   0  0  0  0  0  0  0  0  0  0  0  0
   -0.1330    0.9830    0.0520 C   0  0  0  0  0  0  0  0  0  0  0  0
    0.5760    0.3240   -0.4620 H   0  0  0  0  0  0  0  0  0  0  0  0
   -0.8480    1.3370   -0.7000 H   0  0  0  0  0  0  0  0  0  0  0  0
    6.6350   -1.2480    1.1370 C   0  0  0  0  0  0  0  0  0  0  0  0
    7.1020   -0.4530    1.7310 H   0  0  0  0  0  0  0  0  0  0  0  0
    6.2740   -2.0030    1.8460 H   0  0  0  0  0  0  0  0  0  0  0  0
    5.4320   -0.6910    0.3700 C   0  0  0  0  0  0  0  0  0  0  0  0
    4.6770   -0.3980    1.1090 H   0  0  0  0  0  0  0  0  0  0  0  0
    4.9870   -1.4840   -0.2430 H   0  0  0  0  0  0  0  0  0  0  0  0
    0.6100    2.1800    0.6510 C   0  0  0  0  0  0  0  0  0  0  0  0
   -0.1090    2.8200    1.1770 H   0  0  0  0  0  0  0  0  0  0  0  0
    1.3230    1.8350    1.4080 H   0  0  0  0  0  0  0  0  0  0  0  0
    3.5080    1.6860   -0.3990 C   0  0  0  0  0  0  0  0  0  0  0  0
    3.9600    2.4490    0.2470 H   0  0  0  0  0  0  0  0  0  0  0  0
    3.0840    0.9150    0.2510 H   0  0  0  0  0  0  0  0  0  0  0  0
    4.5850    1.0640   -1.2920 C   0  0  0  0  0  0  0  0  0  0  0  0
    4.1450    0.2660   -1.9020 H   0  0  0  0  0  0  0  0  0  0  0  0
    4.9560    1.8270   -1.9880 H   0  0  0  0  0  0  0  0  0  0  0  0
    5.7830    0.5120   -0.5100 C   0  0  0  0  0  0  0  0  0  0  0  0
    6.5480    0.2220   -1.2390 H   0  0  0  0  0  0  0  0  0  0  0  0
    6.2180    1.3090    0.1060 H   0  0  0  0  0  0  0  0  0  0  0  0
    2.3920    2.3180   -1.2350 C   0  0  0  0  0  0  0  0  0  0  0  0
    1.9190    1.5530   -1.8620 H   0  0  0  0  0  0  0  0  0  0  0  0
    2.8300    3.0500   -1.9250 H   0  0  0  0  0  0  0  0  0  0  0  0
    1.3310    3.0370   -0.3950 C   0  0  0  0  0  0  0  0  0  0  0  0
    0.5850    3.4680   -1.0750 H   0  0  0  0  0  0  0  0  0  0  0  0
    1.8030    3.8830    0.1200 H   0  0  0  0  0  0  0  0  0  0  0  0
    7.6820   -1.8940    0.2420 C   0  0  0  0  0  0  0  0  0  0  0  0
    8.1660   -1.1590   -0.4080 H   0  0  0  0  0  0  0  0  0  0  0  0
    7.2360   -2.6720   -0.3870 H   0  0  0  0  0  0  0  0  0  0  0  0
    8.4620   -2.3590    0.8530 H   0  0  0  0  0  0  0  0  0  0  0  0
  1  2  1  0  0  0  0
  1  3  2  0  0  0  0
  1  4  1  0  0  0  0
  2  5  1  0  0  0  0
  2  7  2  0  0  0  0
  3 10  1  0  0  0  0
  3 25  1  0  0  0  0
  4 13  1  0  0  0  0
  5  6  1  0  0  0  0
  5 12  1  0  0  0  0
  7  8  1  0  0  0  0
  7 11  1  0  0  0  0
  9 14  1  0  0  0  0
  9 17  1  0  0  0  0
  9 18  2  0  0  0  0
 10 11  1  0  0  0  0
 10 19  2  0  0  0  0
 11 20  2  0  0  0  0
 12 13  1  0  0  0  0
 12 15  2  0  0  0  0
 13 21  2  0  0  0  0
 14 15  1  0  0  0  0
 14 23  2  0  0  0  0
 15 16  1  0  0  0  0
 21 22  1  0  0  0  0
 21 23  1  0  0  0  0
 23 24  1  0  0  0  0
 25 26  1  0  0  0  0
 25 27  1  0  0  0  0
 25 28  1  0  0  0  0
 28 29  1  0  0  0  0
 28 30  1  0  0  0  0
 28 37  1  0  0  0  0
 31 32  1  0  0  0  0
 31 33  1  0  0  0  0
 31 34  1  0  0  0  0
 31 55  1  0  0  0  0
 34 35  1  0  0  0  0
 34 36  1  0  0  0  0
 34 46  1  0  0  0  0
 37 38  1  0  0  0  0
 37 39  1  0  0  0  0
 37 52  1  0  0  0  0
 40 41  1  0  0  0  0
 40 42  1  0  0  0  0
 40 43  1  0  0  0  0
 40 49  1  0  0  0  0
 43 44  1  0  0  0  0
 43 45  1  0  0  0  0
 43 46  1  0  0  0  0
 46 47  1  0  0  0  0
 46 48  1  0  0  0  0
 49 50  1  0  0  0  0
 49 51  1  0  0  0  0
 49 52  1  0  0  0  0
 52 53  1  0  0  0  0
 52 54  1  0  0  0  0
 55 56  1  0  0  0  0
 55 57  1  0  0  0  0
 55 58  1  0  0  0  0
M  CHG  1   9   1
M  CHG  1  17  -1
M  END
>  <IDNUMBER>
AK-693/21169018

>  <NAME>
Phenoxazine, derivative of

>  <ADD_INFO>
http://www.specs.net/enter.php?specsid=AK-693/21169018

>  <H_ACCEPTORS>
3

>  <H_DONORS>
1

>  <ROTATABLE_BONDS>
11

>  <LOGP>
6.3800001

>  <LOGS>
-8.04

>  <TPSA>
98.540001

>  <PRICE>
N09

$$$$
AK-693/21169019
  MOE2011           3D

 63 64  0  0  0  0  0  0  0  0999 V2000
   -4.2050    1.2980   -0.2060 C   0  0  0  0  0  0  0  0  0  0  0  0
   -1.8040    0.8390    0.1090 C   0  0  0  0  0  0  0  0  0  0  0  0
   -3.0690    0.4070    0.3400 C   0  0  0  0  0  0  0  0  0  0  0  0
   -5.4600    1.0560   -0.4740 N   0  0  0  0  0  0  0  0  0  0  0  0
   -1.4860    2.1300   -0.5670 C   0  0  0  0  0  0  0  0  0  0  0  0
   -3.8420    2.7120   -0.4940 C   0  0  0  0  0  0  0  0  0  0  0  0
   -4.6810    3.3870   -0.6160 H   0  0  0  0  0  0  0  0  0  0  0  0
   -2.5860    3.1130   -0.6850 C   0  0  0  0  0  0  0  0  0  0  0  0
   -6.0420   -0.2170   -0.3500 C   0  0  0  0  0  0  0  0  0  0  0  0
   -0.3540    2.3940   -0.9650 O   0  0  0  0  0  0  0  0  0  0  0  0
   -6.8510   -0.5090    0.7700 C   0  0  0  0  0  0  0  0  0  0  0  0
   -5.9350   -1.1610   -1.3950 C   0  0  0  0  0  0  0  0  0  0  0  0
   -3.4250   -0.6330    0.9630 O   0  5  0  0  0  0  0  0  0  0  0  0
   -2.2680    4.4150   -1.0260 O   0  0  0  0  0  0  0  0  0  0  0  0
   -3.0880    4.9330   -1.0800 H   0  0  0  0  0  0  0  0  0  0  0  0
   -0.5760    0.0400    0.5200 C   0  0  0  0  0  0  0  0  0  0  0  0
   -0.8350   -1.0100    0.7080 H   0  0  0  0  0  0  0  0  0  0  0  0
    0.1280    0.0030   -0.3170 H   0  0  0  0  0  0  0  0  0  0  0  0
   -7.3530   -2.6960   -0.1550 C   0  0  0  0  0  0  0  0  0  0  0  0
   -7.8450   -3.6610   -0.0730 H   0  0  0  0  0  0  0  0  0  0  0  0
   -7.4900   -1.7540    0.8610 C   0  0  0  0  0  0  0  0  0  0  0  0
   -8.0950   -1.9970    1.7310 H   0  0  0  0  0  0  0  0  0  0  0  0
   -6.5780   -2.4030   -1.2760 C   0  0  0  0  0  0  0  0  0  0  0  0
   -6.4760   -3.1480   -2.0600 H   0  0  0  0  0  0  0  0  0  0  0  0
   -7.0090    0.4930    1.8790 C   0  0  0  0  0  0  0  0  0  0  0  0
   -7.7360    0.1540    2.6250 H   0  0  0  0  0  0  0  0  0  0  0  0
   -7.3700    1.4480    1.4840 H   0  0  0  0  0  0  0  0  0  0  0  0
   -6.0540    0.6490    2.3910 H   0  0  0  0  0  0  0  0  0  0  0  0
   -5.1040   -0.8750   -2.6140 C   0  0  0  0  0  0  0  0  0  0  0  0
   -5.3320   -1.5780   -3.4220 H   0  0  0  0  0  0  0  0  0  0  0  0
   -4.0390   -0.9640   -2.3770 H   0  0  0  0  0  0  0  0  0  0  0  0
   -5.3090    0.1290   -3.0000 H   0  0  0  0  0  0  0  0  0  0  0  0
    0.0890    0.6160    1.7790 C   0  0  0  0  0  0  0  0  0  0  0  0
    0.3370    1.6760    1.6470 H   0  0  0  0  0  0  0  0  0  0  0  0
   -0.6430    0.5720    2.5970 H   0  0  0  0  0  0  0  0  0  0  0  0
    7.8290   -1.8740   -0.3500 C   0  0  0  0  0  0  0  0  0  0  0  0
    8.7470   -2.3430    0.0230 H   0  0  0  0  0  0  0  0  0  0  0  0
    7.0010   -2.3430    0.1930 H   0  0  0  0  0  0  0  0  0  0  0  0
    7.8930   -0.3780   -0.0350 C   0  0  0  0  0  0  0  0  0  0  0  0
    8.7920    0.0450   -0.5010 H   0  0  0  0  0  0  0  0  0  0  0  0
    8.0230   -0.2570    1.0470 H   0  0  0  0  0  0  0  0  0  0  0  0
    2.8430    0.4290    0.2220 C   0  0  0  0  0  0  0  0  0  0  0  0
    2.6670   -0.5750   -0.1820 H   0  0  0  0  0  0  0  0  0  0  0  0
    2.0940    1.0930   -0.2220 H   0  0  0  0  0  0  0  0  0  0  0  0
    4.2180    0.9310   -0.2320 C   0  0  0  0  0  0  0  0  0  0  0  0
    4.1920    1.0490   -1.3220 H   0  0  0  0  0  0  0  0  0  0  0  0
    4.4060    1.9260    0.1890 H   0  0  0  0  0  0  0  0  0  0  0  0
    5.3650   -0.0130    0.1390 C   0  0  0  0  0  0  0  0  0  0  0  0
    5.4780   -0.0580    1.2270 H   0  0  0  0  0  0  0  0  0  0  0  0
    5.1230   -1.0240   -0.2090 H   0  0  0  0  0  0  0  0  0  0  0  0
    6.6850    0.4500   -0.4830 C   0  0  0  0  0  0  0  0  0  0  0  0
    6.6050    0.4360   -1.5770 H   0  0  0  0  0  0  0  0  0  0  0  0
    6.8670    1.4950   -0.2020 H   0  0  0  0  0  0  0  0  0  0  0  0
    1.3310   -0.1700    2.2130 C   0  0  0  0  0  0  0  0  0  0  0  0
    1.3570   -0.1740    3.3110 H   0  0  0  0  0  0  0  0  0  0  0  0
    1.2550   -1.2200    1.9060 H   0  0  0  0  0  0  0  0  0  0  0  0
    2.6660    0.4200    1.7400 C   0  0  0  0  0  0  0  0  0  0  0  0
    2.7700    1.4420    2.1260 H   0  0  0  0  0  0  0  0  0  0  0  0
    3.4650   -0.1710    2.2030 H   0  0  0  0  0  0  0  0  0  0  0  0
    7.7010   -2.1780   -1.8340 C   0  0  0  0  0  0  0  0  0  0  0  0
    8.5060   -1.7030   -2.4040 H   0  0  0  0  0  0  0  0  0  0  0  0
    6.7430   -1.8330   -2.2340 H   0  0  0  0  0  0  0  0  0  0  0  0
    7.7600   -3.2590   -2.0020 H   0  0  0  0  0  0  0  0  0  0  0  0
  1  3  1  0  0  0  0
  1  4  2  0  0  0  0
  1  6  1  0  0  0  0
  2  3  2  0  0  0  0
  2  5  1  0  0  0  0
  2 16  1  0  0  0  0
  3 13  1  0  0  0  0
  4  9  1  0  0  0  0
  5  8  1  0  0  0  0
  5 10  2  0  0  0  0
  6  7  1  0  0  0  0
  6  8  2  0  0  0  0
  8 14  1  0  0  0  0
  9 11  2  0  0  0  0
  9 12  1  0  0  0  0
 11 21  1  0  0  0  0
 11 25  1  0  0  0  0
 12 23  2  0  0  0  0
 12 29  1  0  0  0  0
 14 15  1  0  0  0  0
 16 17  1  0  0  0  0
 16 18  1  0  0  0  0
 16 33  1  0  0  0  0
 19 20  1  0  0  0  0
 19 21  2  0  0  0  0
 19 23  1  0  0  0  0
 21 22  1  0  0  0  0
 23 24  1  0  0  0  0
 25 26  1  0  0  0  0
 25 27  1  0  0  0  0
 25 28  1  0  0  0  0
 29 30  1  0  0  0  0
 29 31  1  0  0  0  0
 29 32  1  0  0  0  0
 33 34  1  0  0  0  0
 33 35  1  0  0  0  0
 33 54  1  0  0  0  0
 36 37  1  0  0  0  0
 36 38  1  0  0  0  0
 36 39  1  0  0  0  0
 36 60  1  0  0  0  0
 39 40  1  0  0  0  0
 39 41  1  0  0  0  0
 39 51  1  0  0  0  0
 42 43  1  0  0  0  0
 42 44  1  0  0  0  0
 42 45  1  0  0  0  0
 42 57  1  0  0  0  0
 45 46  1  0  0  0  0
 45 47  1  0  0  0  0
 45 48  1  0  0  0  0
 48 49  1  0  0  0  0
 48 50  1  0  0  0  0
 48 51  1  0  0  0  0
 51 52  1  0  0  0  0
 51 53  1  0  0  0  0
 54 55  1  0  0  0  0
 54 56  1  0  0  0  0
 54 57  1  0  0  0  0
 57 58  1  0  0  0  0
 57 59  1  0  0  0  0
 60 61  1  0  0  0  0
 60 62  1  0  0  0  0
 60 63  1  0  0  0  0
M  CHG  1  13  -1
M  END
>  <IDNUMBER>
AK-693/21169019

>  <NAME>
Aminohydroxyquinone, derivative of

>  <ADD_INFO>
http://www.specs.net/enter.php?specsid=AK-693/21169019

>  <H_ACCEPTORS>
4

>  <H_DONORS>
2

>  <ROTATABLE_BONDS>
11

>  <LOGP>
9.0699997

>  <LOGS>
-9.8500004

>  <TPSA>
69.889999

>  <PRICE>
N09

$$$$
AK-693/21212004
  MOE2011           3D

 61 65  0  0  1  0  0  0  0  0999 V2000
    0.0490    0.3810    0.6460 C   0  0  2  0  0  0  0  0  0  0  0  0
   -2.2060    0.1530   -0.8160 C   0  0  1  0  0  0  0  0  0  0  0  0
   -1.5200    0.1970    0.5970 C   0  0  1  0  0  0  0  0  0  0  0  0
   -4.2680   -0.7700    0.2890 C   0  0  0  0  0  0  0  0  0  0  0  0
   -3.7520    0.3540   -0.5910 C   0  0  1  0  0  0  0  0  0  0  0  0
    0.4440    1.5350   -0.3160 C   0  0  1  0  0  0  0  0  0  0  0  0
    1.9810    1.7440   -0.2530 C   0  0  2  0  0  0  0  0  0  0  0  0
   -2.0870   -0.9440    1.4820 C   0  0  0  0  0  0  0  0  0  0  0  0
   -1.3090   -1.6400    1.8090 H   0  0  0  0  0  0  0  0  0  0  0  0
   -2.5060   -0.5120    2.4010 H   0  0  0  0  0  0  0  0  0  0  0  0
   -3.1790   -1.7280    0.7330 C   0  0  3  0  0  0  0  0  0  0  0  0
    2.3080   -0.7400    0.1560 N   0  3  2  0  0  0  0  0  0  0  0  0
    2.6630   -0.6190    1.1070 H   0  0  0  0  0  0  0  0  0  0  0  0
   -1.6480    1.2580   -1.7260 C   0  0  0  0  0  0  0  0  0  0  0  0
   -2.0110    1.1210   -2.7520 H   0  0  0  0  0  0  0  0  0  0  0  0
   -2.0220    2.2370   -1.4010 H   0  0  0  0  0  0  0  0  0  0  0  0
    0.8080   -0.9160    0.2630 C   0  0  0  0  0  0  0  0  0  0  0  0
    0.5000   -1.3040   -0.7030 H   0  0  0  0  0  0  0  0  0  0  0  0
    0.6570   -1.7000    1.0120 H   0  0  0  0  0  0  0  0  0  0  0  0
   -2.0820   -1.2430   -1.4860 C   0  0  0  0  0  0  0  0  0  0  0  0
   -2.7140   -1.2710   -2.3850 H   0  0  0  0  0  0  0  0  0  0  0  0
   -1.0800   -1.4600   -1.8570 H   0  0  0  0  0  0  0  0  0  0  0  0
   -0.1210    1.3220   -1.7360 C   0  0  0  0  0  0  0  0  0  0  0  0
    0.1600    2.1590   -2.3830 H   0  0  0  0  0  0  0  0  0  0  0  0
    0.2890    0.4210   -2.2030 H   0  0  0  0  0  0  0  0  0  0  0  0
    2.7250    0.4570   -0.6590 C   0  0  0  0  0  0  0  0  0  0  0  0
    3.8030    0.5840   -0.5120 H   0  0  0  0  0  0  0  0  0  0  0  0
    2.5470    0.2050   -1.7100 H   0  0  0  0  0  0  0  0  0  0  0  0
   -2.5500   -2.3470   -0.5260 C   0  0  0  0  0  0  0  0  0  0  0  0
   -1.6990   -2.9800   -0.2480 H   0  0  0  0  0  0  0  0  0  0  0  0
   -3.2700   -2.9990   -1.0370 H   0  0  0  0  0  0  0  0  0  0  0  0
   -5.5610   -0.9450    0.6030 C   0  0  0  0  0  0  0  0  0  0  0  0
   -6.3330   -0.2730    0.2440 H   0  0  0  0  0  0  0  0  0  0  0  0
   -5.8870   -1.7780    1.2190 H   0  0  0  0  0  0  0  0  0  0  0  0
    0.4130    0.8190    2.1030 C   0  0  0  0  0  0  0  0  0  0  0  0
   -0.2750    1.6190    2.4110 H   0  0  0  0  0  0  0  0  0  0  0  0
    0.2370   -0.0060    2.8040 H   0  0  0  0  0  0  0  0  0  0  0  0
   -4.0030    1.6090    0.0320 O   0  0  0  0  0  0  0  0  0  0  0  0
   -4.9260    1.6090    0.3330 H   0  0  0  0  0  0  0  0  0  0  0  0
    2.3530    2.2120    1.1810 C   0  0  0  0  0  0  0  0  0  0  0  0
    3.4420    2.3020    1.2810 H   0  0  0  0  0  0  0  0  0  0  0  0
    1.9570    3.2280    1.3260 H   0  0  0  0  0  0  0  0  0  0  0  0
    2.4410    2.8640   -1.2150 C   0  0  0  0  0  0  0  0  0  0  0  0
    1.8640    3.7830   -1.0590 H   0  0  0  0  0  0  0  0  0  0  0  0
    2.3340    2.5730   -2.2650 H   0  0  0  0  0  0  0  0  0  0  0  0
    3.4990    3.1050   -1.0590 H   0  0  0  0  0  0  0  0  0  0  0  0
    2.9500   -2.0330   -0.3400 C   0  0  0  0  0  0  0  0  0  0  0  0
    2.4910   -2.8570    0.2180 H   0  0  0  0  0  0  0  0  0  0  0  0
    2.6930   -2.1590   -1.3980 H   0  0  0  0  0  0  0  0  0  0  0  0
    1.8230    1.3570    2.3260 C   0  0  0  0  0  0  0  0  0  0  0  0
    1.8290    1.9580    3.2450 H   0  0  0  0  0  0  0  0  0  0  0  0
    2.5140    0.5390    2.5470 H   0  0  0  0  0  0  0  0  0  0  0  0
    4.9530   -3.3500   -0.4150 O   0  0  0  0  0  0  0  0  0  0  0  0
    5.9170   -3.3420   -0.2770 H   0  0  0  0  0  0  0  0  0  0  0  0
    4.4620   -2.0490   -0.1200 C   0  0  0  0  0  0  0  0  0  0  0  0
    4.7090   -1.8150    0.9200 H   0  0  0  0  0  0  0  0  0  0  0  0
    4.9690   -1.3370   -0.7780 H   0  0  0  0  0  0  0  0  0  0  0  0
   -1.8980    1.1230    1.0590 H   0  0  0  0  0  0  0  0  0  0  0  0
   -0.0240    2.4610    0.0550 H   0  0  0  0  0  0  0  0  0  0  0  0
   -4.2760    0.3460   -1.5550 H   0  0  0  0  0  0  0  0  0  0  0  0
   -3.5730   -2.5200    1.3800 H   0  0  0  0  0  0  0  0  0  0  0  0
  1  3  1  0  0  0  0
  1  6  1  0  0  0  0
  1 17  1  0  0  0  0
  1 35  1  0  0  0  0
  2  3  1  0  0  0  0
  2  5  1  0  0  0  0
  2 14  1  0  0  0  0
  2 20  1  0  0  0  0
  3  8  1  0  0  0  0
  3 58  1  0  0  0  0
  4  5  1  0  0  0  0
  4 11  1  0  0  0  0
  4 32  2  0  0  0  0
  5 38  1  0  0  0  0
  5 60  1  0  0  0  0
  6  7  1  0  0  0  0
  6 23  1  0  0  0  0
  6 59  1  0  0  0  0
  7 26  1  0  0  0  0
  7 40  1  0  0  0  0
  7 43  1  0  0  0  0
  8  9  1  0  0  0  0
  8 10  1  0  0  0  0
  8 11  1  0  0  0  0
 11 29  1  0  0  0  0
 11 61  1  0  0  0  0
 12 13  1  0  0  0  0
 12 17  1  0  0  0  0
 12 26  1  0  0  0  0
 12 47  1  0  0  0  0
 14 15  1  0  0  0  0
 14 16  1  0  0  0  0
 14 23  1  0  0  0  0
 17 18  1  0  0  0  0
 17 19  1  0  0  0  0
 20 21  1  0  0  0  0
 20 22  1  0  0  0  0
 20 29  1  0  0  0  0
 23 24  1  0  0  0  0
 23 25  1  0  0  0  0
 26 27  1  0  0  0  0
 26 28  1  0  0  0  0
 29 30  1  0  0  0  0
 29 31  1  0  0  0  0
 32 33  1  0  0  0  0
 32 34  1  0  0  0  0
 35 36  1  0  0  0  0
 35 37  1  0  0  0  0
 35 50  1  0  0  0  0
 38 39  1  0  0  0  0
 40 41  1  0  0  0  0
 40 42  1  0  0  0  0
 40 50  1  0  0  0  0
 43 44  1  0  0  0  0
 43 45  1  0  0  0  0
 43 46  1  0  0  0  0
 47 48  1  0  0  0  0
 47 49  1  0  0  0  0
 47 55  1  0  0  0  0
 50 51  1  0  0  0  0
 50 52  1  0  0  0  0
 53 54  1  0  0  0  0
 53 55  1  0  0  0  0
 55 56  1  0  0  0  0
 55 57  1  0  0  0  0
M  CHG  1  12   1
M  END
>  <IDNUMBER>
AK-693/21212004

>  <NAME>
21-(2-hydroxyethyl)-4-methylatid-16-en-15-ol

>  <ADD_INFO>
http://www.specs.net/enter.php?specsid=AK-693/21212004

>  <H_ACCEPTORS>
3

>  <H_DONORS>
2

>  <ROTATABLE_BONDS>
2

>  <LOGP>
4.21

>  <LOGS>
-4.3099999

>  <TPSA>
43.700001

>  <PRICE>
N09

$$$$
AK-693/21212005
  MOE2011           3D

 48 50  0  0  1  0  0  0  0  0999 V2000
    1.5540    0.4440    0.7020 C   0  0  0  0  0  0  0  0  0  0  0  0
    0.5970    1.5710    1.0560 C   0  0  1  0  0  0  0  0  0  0  0  0
    0.4590    2.6500   -0.0320 N   0  3  3  0  0  0  0  0  0  0  0  0
    0.0840    3.4830    0.4390 H   0  0  0  0  0  0  0  0  0  0  0  0
    2.4940    0.6010   -0.3420 C   0  0  0  0  0  0  0  0  0  0  0  0
    1.5960   -0.7350    1.4630 C   0  0  0  0  0  0  0  0  0  0  0  0
    0.9270   -0.9010    2.3030 H   0  0  0  0  0  0  0  0  0  0  0  0
    2.5050   -1.7390    1.1490 C   0  0  0  0  0  0  0  0  0  0  0  0
    3.4030   -0.4340   -0.6460 C   0  0  0  0  0  0  0  0  0  0  0  0
    4.0940   -0.2910   -1.4720 H   0  0  0  0  0  0  0  0  0  0  0  0
    3.4170   -1.6080    0.1020 C   0  0  0  0  0  0  0  0  0  0  0  0
   -2.6200   -1.2840   -0.5350 C   0  0  0  0  0  0  0  0  0  0  0  0
   -0.7740    1.2280    1.7070 C   0  0  0  0  0  0  0  0  0  0  0  0
   -0.5850    0.7190    2.6620 H   0  0  0  0  0  0  0  0  0  0  0  0
   -1.2300    2.1900    1.9820 H   0  0  0  0  0  0  0  0  0  0  0  0
    1.8350    3.0430   -0.5300 C   0  0  0  0  0  0  0  0  0  0  0  0
    1.7140    3.8790   -1.2270 H   0  0  0  0  0  0  0  0  0  0  0  0
    2.3930    3.4060    0.3420 H   0  0  0  0  0  0  0  0  0  0  0  0
   -3.9480   -1.0900   -0.1510 C   0  0  0  0  0  0  0  0  0  0  0  0
   -1.5710   -0.5610    0.0310 C   0  0  0  0  0  0  0  0  0  0  0  0
   -0.5690   -0.7900   -0.3100 H   0  0  0  0  0  0  0  0  0  0  0  0
   -1.8350    0.4120    0.9990 C   0  0  0  0  0  0  0  0  0  0  0  0
    2.5300    1.8540   -1.1850 C   0  0  0  0  0  0  0  0  0  0  0  0
    2.0670    1.6330   -2.1540 H   0  0  0  0  0  0  0  0  0  0  0  0
    3.5720    2.1350   -1.3810 H   0  0  0  0  0  0  0  0  0  0  0  0
   -4.2240   -0.1380    0.8230 C   0  0  0  0  0  0  0  0  0  0  0  0
   -5.2340    0.0580    1.1670 H   0  0  0  0  0  0  0  0  0  0  0  0
   -3.1760    0.5990    1.3920 C   0  0  0  0  0  0  0  0  0  0  0  0
   -3.4210    1.3280    2.1640 H   0  0  0  0  0  0  0  0  0  0  0  0
    2.4890   -2.8820    1.9020 O   0  0  0  0  0  0  0  0  0  0  0  0
    3.1830   -3.4500    1.5110 H   0  0  0  0  0  0  0  0  0  0  0  0
   -2.3210   -2.2130   -1.4960 O   0  0  0  0  0  0  0  0  0  0  0  0
   -3.1830   -2.6090   -1.7360 H   0  0  0  0  0  0  0  0  0  0  0  0
    4.2510   -2.6810   -0.0720 O   0  0  0  0  0  0  0  0  0  0  0  0
   -4.8550   -1.8870   -0.7960 O   0  0  0  0  0  0  0  0  0  0  0  0
   -0.4930    2.3640   -1.1610 C   0  0  0  0  0  0  0  0  0  0  0  0
   -0.2570    1.3940   -1.6010 H   0  0  0  0  0  0  0  0  0  0  0  0
   -0.3820    3.1570   -1.9060 H   0  0  0  0  0  0  0  0  0  0  0  0
   -1.5110    2.4010   -0.7700 H   0  0  0  0  0  0  0  0  0  0  0  0
    5.2470   -2.5590   -1.0800 C   0  0  0  0  0  0  0  0  0  0  0  0
    5.8450   -3.4750   -1.0710 H   0  0  0  0  0  0  0  0  0  0  0  0
    5.9190   -1.7190   -0.8730 H   0  0  0  0  0  0  0  0  0  0  0  0
    4.7930   -2.4670   -2.0720 H   0  0  0  0  0  0  0  0  0  0  0  0
   -6.2060   -1.7920   -0.3590 C   0  0  0  0  0  0  0  0  0  0  0  0
   -6.7950   -2.5120   -0.9350 H   0  0  0  0  0  0  0  0  0  0  0  0
   -6.6130   -0.7950   -0.5550 H   0  0  0  0  0  0  0  0  0  0  0  0
   -6.2990   -2.0550    0.7000 H   0  0  0  0  0  0  0  0  0  0  0  0
    1.1320    2.1150    1.8490 H   0  0  0  0  0  0  0  0  0  0  0  0
  1  2  1  0  0  0  0
  1  5  2  0  0  0  0
  1  6  1  0  0  0  0
  2  3  1  0  0  0  0
  2 13  1  0  0  0  0
  2 48  1  0  0  0  0
  3  4  1  0  0  0  0
  3 16  1  0  0  0  0
  3 36  1  0  0  0  0
  5  9  1  0  0  0  0
  5 23  1  0  0  0  0
  6  7  1  0  0  0  0
  6  8  2  0  0  0  0
  8 11  1  0  0  0  0
  8 30  1  0  0  0  0
  9 10  1  0  0  0  0
  9 11  2  0  0  0  0
 11 34  1  0  0  0  0
 12 19  2  0  0  0  0
 12 20  1  0  0  0  0
 12 32  1  0  0  0  0
 13 14  1  0  0  0  0
 13 15  1  0  0  0  0
 13 22  1  0  0  0  0
 16 17  1  0  0  0  0
 16 18  1  0  0  0  0
 16 23  1  0  0  0  0
 19 26  1  0  0  0  0
 19 35  1  0  0  0  0
 20 21  1  0  0  0  0
 20 22  2  0  0  0  0
 22 28  1  0  0  0  0
 23 24  1  0  0  0  0
 23 25  1  0  0  0  0
 26 27  1  0  0  0  0
 26 28  2  0  0  0  0
 28 29  1  0  0  0  0
 30 31  1  0  0  0  0
 32 33  1  0  0  0  0
 34 40  1  0  0  0  0
 35 44  1  0  0  0  0
 36 37  1  0  0  0  0
 36 38  1  0  0  0  0
 36 39  1  0  0  0  0
 40 41  1  0  0  0  0
 40 42  1  0  0  0  0
 40 43  1  0  0  0  0
 44 45  1  0  0  0  0
 44 46  1  0  0  0  0
 44 47  1  0  0  0  0
M  CHG  1   3   1
M  END
>  <IDNUMBER>
AK-693/21212005

>  <NAME>
1-(3-hydroxy-4-methoxybenzyl)-6-methoxy-2-methyl-1,2,3,4-tetrahydro-7-isoquinolinol

>  <ADD_INFO>
http://www.specs.net/enter.php?specsid=AK-693/21212005

>  <H_ACCEPTORS>
1

>  <H_DONORS>
2

>  <ROTATABLE_BONDS>
4

>  <LOGP>
2.77

>  <LOGS>
-2.96

>  <TPSA>
62.16

>  <PRICE>
N07

>  <SALTDATA>
HClO4

$$$$
AK-693/21212006
  MOE2011           3D

 94 96  0  0  1  0  0  0  0  0999 V2000
    3.7110   -1.8130    1.0100 N   0  0  0  0  0  0  0  0  0  0  0  0
   -3.7700    2.0570    1.0860 N   0  0  0  0  0  0  0  0  0  0  0  0
   -4.7640    0.9670    0.8890 C   0  0  2  0  0  0  0  0  0  0  0  0
    4.5260   -0.8170    0.2680 C   0  0  2  0  0  0  0  0  0  0  0  0
    3.9670    1.5360   -0.2410 O   0  0  0  0  0  0  0  0  0  0  0  0
   -3.8920   -0.7480   -0.6500 O   0  0  0  0  0  0  0  0  0  0  0  0
    4.3660    0.6320    0.8150 C   0  0  1  0  0  0  0  0  0  0  0  0
   -4.1250   -0.4430    0.7500 C   0  0  1  0  0  0  0  0  0  0  0  0
    4.2150   -3.0330    1.4770 C   0  0  0  0  0  0  0  0  0  0  0  0
   -4.0500    3.2610    1.7440 C   0  0  0  0  0  0  0  0  0  0  0  0
   -4.1890   -1.9410   -1.2240 C   0  0  0  0  0  0  0  0  0  0  0  0
    4.9190    2.3840   -0.7170 C   0  0  0  0  0  0  0  0  0  0  0  0
   -2.4080    1.8840    0.5440 C   0  0  1  0  0  0  0  0  0  0  0  0
    2.2910   -1.5010    1.2880 C   0  0  1  0  0  0  0  0  0  0  0  0
    3.5570   -3.8140    2.1690 O   0  0  0  0  0  0  0  0  0  0  0  0
   -3.2550    4.2040    1.7880 O   0  0  0  0  0  0  0  0  0  0  0  0
    3.3130    0.7310    1.9200 C   0  0  0  0  0  0  0  0  0  0  0  0
    3.6950    0.2930    2.8500 H   0  0  0  0  0  0  0  0  0  0  0  0
    3.0760    1.7820    2.1220 H   0  0  0  0  0  0  0  0  0  0  0  0
   -2.7980   -0.4680    1.5000 C   0  0  0  0  0  0  0  0  0  0  0  0
   -2.9540   -0.1970    2.5510 H   0  0  0  0  0  0  0  0  0  0  0  0
   -2.3540   -1.4670    1.4940 H   0  0  0  0  0  0  0  0  0  0  0  0
   -4.4340   -2.0130   -2.4250 O   0  0  0  0  0  0  0  0  0  0  0  0
    6.0570    2.4950   -0.2810 O   0  0  0  0  0  0  0  0  0  0  0  0
   -1.8130    0.4980    0.8480 C   0  0  0  0  0  0  0  0  0  0  0  0
   -1.4120    0.0370   -0.0610 H   0  0  0  0  0  0  0  0  0  0  0  0
   -0.9550    0.6160    1.5210 H   0  0  0  0  0  0  0  0  0  0  0  0
    2.0490    0.0070    1.4890 C   0  0  0  0  0  0  0  0  0  0  0  0
    1.6690    0.4660    0.5670 H   0  0  0  0  0  0  0  0  0  0  0  0
    1.2670    0.1480    2.2450 H   0  0  0  0  0  0  0  0  0  0  0  0
    4.3190   -0.9600   -1.2440 C   0  0  0  0  0  0  0  0  0  0  0  0
    5.0670   -0.3810   -1.7940 H   0  0  0  0  0  0  0  0  0  0  0  0
    3.3300   -0.6130   -1.5550 H   0  0  0  0  0  0  0  0  0  0  0  0
    4.4140   -2.0060   -1.5570 H   0  0  0  0  0  0  0  0  0  0  0  0
   -5.7240    1.2790   -0.2650 C   0  0  0  0  0  0  0  0  0  0  0  0
   -6.4770    0.4910   -0.3610 H   0  0  0  0  0  0  0  0  0  0  0  0
   -5.2010    1.3690   -1.2220 H   0  0  0  0  0  0  0  0  0  0  0  0
   -6.2530    2.2240   -0.1110 H   0  0  0  0  0  0  0  0  0  0  0  0
   -5.3750    3.3810    2.4560 C   0  0  0  0  0  0  0  0  0  0  0  0
   -5.4600    2.6130    3.2280 H   0  0  0  0  0  0  0  0  0  0  0  0
   -6.2080    3.3120    1.7560 H   0  0  0  0  0  0  0  0  0  0  0  0
   -5.4310    4.3580    2.9470 H   0  0  0  0  0  0  0  0  0  0  0  0
    5.6360   -3.3900    1.1170 C   0  0  0  0  0  0  0  0  0  0  0  0
    5.7990   -3.3020    0.0410 H   0  0  0  0  0  0  0  0  0  0  0  0
    5.8300   -4.4290    1.4000 H   0  0  0  0  0  0  0  0  0  0  0  0
    6.3330   -2.7500    1.6660 H   0  0  0  0  0  0  0  0  0  0  0  0
   -4.1910   -3.1570   -0.3260 C   0  0  0  0  0  0  0  0  0  0  0  0
   -3.5920   -2.9920    0.5690 H   0  0  0  0  0  0  0  0  0  0  0  0
   -5.2250   -3.3260   -0.0030 H   0  0  0  0  0  0  0  0  0  0  0  0
    4.4000    3.1660   -1.8950 C   0  0  0  0  0  0  0  0  0  0  0  0
    5.2710    3.4320   -2.5080 H   0  0  0  0  0  0  0  0  0  0  0  0
    3.7930    2.5140   -2.5300 H   0  0  0  0  0  0  0  0  0  0  0  0
   -2.3520    2.2840   -0.9440 C   0  0  0  0  0  0  0  0  0  0  0  0
   -2.9500    1.5860   -1.5400 H   0  0  0  0  0  0  0  0  0  0  0  0
   -2.8280    3.2660   -1.0670 H   0  0  0  0  0  0  0  0  0  0  0  0
    1.2990   -2.0300    0.2230 C   0  0  0  0  0  0  0  0  0  0  0  0
    0.2960   -1.7090    0.5260 H   0  0  0  0  0  0  0  0  0  0  0  0
    1.4940   -1.5510   -0.7430 H   0  0  0  0  0  0  0  0  0  0  0  0
    3.6710    4.4410   -1.4880 C   0  0  0  0  0  0  0  0  0  0  0  0
    4.3240    5.0440   -0.8450 H   0  0  0  0  0  0  0  0  0  0  0  0
    3.4820    5.0360   -2.3900 H   0  0  0  0  0  0  0  0  0  0  0  0
   -3.6600   -4.4110   -1.0280 C   0  0  0  0  0  0  0  0  0  0  0  0
   -3.7300   -5.2520   -0.3260 H   0  0  0  0  0  0  0  0  0  0  0  0
   -4.3120   -4.6610   -1.8740 H   0  0  0  0  0  0  0  0  0  0  0  0
    1.2900   -3.5480    0.0240 C   0  0  0  0  0  0  0  0  0  0  0  0
    2.2720   -3.8680   -0.3440 H   0  0  0  0  0  0  0  0  0  0  0  0
    1.1170   -4.0540    0.9810 H   0  0  0  0  0  0  0  0  0  0  0  0
   -0.9510    2.3490   -1.5630 C   0  0  0  0  0  0  0  0  0  0  0  0
   -0.5180    1.3440   -1.6200 H   0  0  0  0  0  0  0  0  0  0  0  0
   -1.0550    2.6950   -2.5990 H   0  0  0  0  0  0  0  0  0  0  0  0
    2.3430    4.2260   -0.7570 C   0  0  0  0  0  0  0  0  0  0  0  0
    2.5260    3.7480    0.2130 H   0  0  0  0  0  0  0  0  0  0  0  0
    1.9090    5.2090   -0.5370 H   0  0  0  0  0  0  0  0  0  0  0  0
   -2.2150   -4.3210   -1.5420 C   0  0  0  0  0  0  0  0  0  0  0  0
   -1.9390   -5.3020   -1.9490 H   0  0  0  0  0  0  0  0  0  0  0  0
   -2.1640   -3.6140   -2.3780 H   0  0  0  0  0  0  0  0  0  0  0  0
    1.3360    3.4010   -1.5600 C   0  0  0  0  0  0  0  0  0  0  0  0
    1.1710    3.8670   -2.5390 H   0  0  0  0  0  0  0  0  0  0  0  0
    1.7300    2.3950   -1.7400 H   0  0  0  0  0  0  0  0  0  0  0  0
   -1.1980   -3.9100   -0.4740 C   0  0  0  0  0  0  0  0  0  0  0  0
   -1.4040   -2.8830   -0.1650 H   0  0  0  0  0  0  0  0  0  0  0  0
   -1.3080   -4.5490    0.4110 H   0  0  0  0  0  0  0  0  0  0  0  0
    0.2390   -4.0080   -0.9970 C   0  0  0  0  0  0  0  0  0  0  0  0
    0.3430   -3.4250   -1.9200 H   0  0  0  0  0  0  0  0  0  0  0  0
    0.4470   -5.0530   -1.2580 H   0  0  0  0  0  0  0  0  0  0  0  0
    0.0080    3.2770   -0.8170 C   0  0  0  0  0  0  0  0  0  0  0  0
   -0.4450    4.2680   -0.6990 H   0  0  0  0  0  0  0  0  0  0  0  0
    0.2040    2.8830    0.1870 H   0  0  0  0  0  0  0  0  0  0  0  0
   -5.3610    0.9360    1.8070 H   0  0  0  0  0  0  0  0  0  0  0  0
    5.5780   -1.0630    0.4420 H   0  0  0  0  0  0  0  0  0  0  0  0
    5.3180    0.9500    1.2560 H   0  0  0  0  0  0  0  0  0  0  0  0
   -4.8280   -1.1710    1.1710 H   0  0  0  0  0  0  0  0  0  0  0  0
   -1.7710    2.5970    1.0800 H   0  0  0  0  0  0  0  0  0  0  0  0
    2.0350   -1.9910    2.2370 H   0  0  0  0  0  0  0  0  0  0  0  0
  1  4  1  0  0  0  0
  1  9  1  0  0  0  0
  1 14  1  0  0  0  0
  2  3  1  0  0  0  0
  2 10  1  0  0  0  0
  2 13  1  0  0  0  0
  3  8  1  0  0  0  0
  3 35  1  0  0  0  0
  3 89  1  0  0  0  0
  4  7  1  0  0  0  0
  4 31  1  0  0  0  0
  4 90  1  0  0  0  0
  5  7  1  0  0  0  0
  5 12  1  0  0  0  0
  6  8  1  0  0  0  0
  6 11  1  0  0  0  0
  7 17  1  0  0  0  0
  7 91  1  0  0  0  0
  8 20  1  0  0  0  0
  8 92  1  0  0  0  0
  9 15  2  0  0  0  0
  9 43  1  0  0  0  0
 10 16  2  0  0  0  0
 10 39  1  0  0  0  0
 11 23  2  0  0  0  0
 11 47  1  0  0  0  0
 12 24  2  0  0  0  0
 12 50  1  0  0  0  0
 13 25  1  0  0  0  0
 13 53  1  0  0  0  0
 13 93  1  0  0  0  0
 14 28  1  0  0  0  0
 14 56  1  0  0  0  0
 14 94  1  0  0  0  0
 17 18  1  0  0  0  0
 17 19  1  0  0  0  0
 17 28  1  0  0  0  0
 20 21  1  0  0  0  0
 20 22  1  0  0  0  0
 20 25  1  0  0  0  0
 25 26  1  0  0  0  0
 25 27  1  0  0  0  0
 28 29  1  0  0  0  0
 28 30  1  0  0  0  0
 31 32  1  0  0  0  0
 31 33  1  0  0  0  0
 31 34  1  0  0  0  0
 35 36  1  0  0  0  0
 35 37  1  0  0  0  0
 35 38  1  0  0  0  0
 39 40  1  0  0  0  0
 39 41  1  0  0  0  0
 39 42  1  0  0  0  0
 43 44  1  0  0  0  0
 43 45  1  0  0  0  0
 43 46  1  0  0  0  0
 47 48  1  0  0  0  0
 47 49  1  0  0  0  0
 47 62  1  0  0  0  0
 50 51  1  0  0  0  0
 50 52  1  0  0  0  0
 50 59  1  0  0  0  0
 53 54  1  0  0  0  0
 53 55  1  0  0  0  0
 53 68  1  0  0  0  0
 56 57  1  0  0  0  0
 56 58  1  0  0  0  0
 56 65  1  0  0  0  0
 59 60  1  0  0  0  0
 59 61  1  0  0  0  0
 59 71  1  0  0  0  0
 62 63  1  0  0  0  0
 62 64  1  0  0  0  0
 62 74  1  0  0  0  0
 65 66  1  0  0  0  0
 65 67  1  0  0  0  0
 65 83  1  0  0  0  0
 68 69  1  0  0  0  0
 68 70  1  0  0  0  0
 68 86  1  0  0  0  0
 71 72  1  0  0  0  0
 71 73  1  0  0  0  0
 71 77  1  0  0  0  0
 74 75  1  0  0  0  0
 74 76  1  0  0  0  0
 74 80  1  0  0  0  0
 77 78  1  0  0  0  0
 77 79  1  0  0  0  0
 77 86  1  0  0  0  0
 80 81  1  0  0  0  0
 80 82  1  0  0  0  0
 80 83  1  0  0  0  0
 83 84  1  0  0  0  0
 83 85  1  0  0  0  0
 86 87  1  0  0  0  0
 86 88  1  0  0  0  0
M  END
>  <IDNUMBER>
AK-693/21212006

>  <NAME>
12,25-diacetyl-13,26-dimethyl-2,15-dioxa-12,25-diazatricyclo[22.2.2.2~11,14~]triacontane-3,16-dione

>  <ADD_INFO>
http://www.specs.net/enter.php?specsid=AK-693/21212006

>  <H_ACCEPTORS>
8

>  <H_DONORS>
0

>  <ROTATABLE_BONDS>
2

>  <LOGP>
6.1300001

>  <LOGS>
-8.54

>  <TPSA>
93.220001

>  <PRICE>
N09

$$$$
AK-693/21212010
  MOE2011           3D

 80 83  0  0  1  0  0  0  0  0999 V2000
    0.8020   -2.5440    1.4270 C   0  0  2  0  0  0  0  0  0  0  0  0
    1.4000   -1.0410    1.2510 C   0  0  0  0  0  0  0  0  0  0  0  0
    0.9230   -2.7140   -0.0510 C   0  0  2  0  0  0  0  0  0  0  0  0
    2.6840    0.7140   -0.2960 C   0  0  2  0  0  0  0  0  0  0  0  0
    1.5600   -0.3940   -0.2480 C   0  0  1  0  0  0  0  0  0  0  0  0
    2.5980    1.7240    0.9170 C   0  0  1  0  0  0  0  0  0  0  0  0
    1.7300    3.0120    0.6700 C   0  0  0  0  0  0  0  0  0  0  0  0
    1.7900   -0.3320    2.3210 C   0  0  0  0  0  0  0  0  0  0  0  0
    1.6800   -0.7670    3.3120 H   0  0  0  0  0  0  0  0  0  0  0  0
   -0.7600   -2.3090   -0.3720 C   0  0  1  0  0  0  0  0  0  0  0  0
   -0.6310   -2.5190    1.9490 C   0  0  0  0  0  0  0  0  0  0  0  0
   -1.0200   -3.5400    2.0540 H   0  0  0  0  0  0  0  0  0  0  0  0
   -0.7240   -2.0270    2.9240 H   0  0  0  0  0  0  0  0  0  0  0  0
    1.0310   -2.9210   -1.5200 C   0  0  0  0  0  0  0  0  0  0  0  0
    1.7540   -3.6280   -1.9590 H   0  0  0  0  0  0  0  0  0  0  0  0
    0.1770   -3.1830   -2.1440 H   0  0  0  0  0  0  0  0  0  0  0  0
    2.3720    1.0410    2.2920 C   0  0  0  0  0  0  0  0  0  0  0  0
    3.3470    0.9740    2.7930 H   0  0  0  0  0  0  0  0  0  0  0  0
    1.7530    1.6590    2.9470 H   0  0  0  0  0  0  0  0  0  0  0  0
    2.2000    3.6960   -0.6290 C   0  0  0  0  0  0  0  0  0  0  0  0
    2.5850    1.4770   -1.6480 C   0  0  0  0  0  0  0  0  0  0  0  0
    3.1420    0.9500   -2.4310 H   0  0  0  0  0  0  0  0  0  0  0  0
    1.5420    1.5080   -1.9870 H   0  0  0  0  0  0  0  0  0  0  0  0
    1.5510   -1.3560   -1.6920 C   0  0  0  0  0  0  0  0  0  0  0  0
    0.9550   -0.8240   -2.4400 H   0  0  0  0  0  0  0  0  0  0  0  0
    2.5560   -1.3700   -2.1260 H   0  0  0  0  0  0  0  0  0  0  0  0
   -4.9480    1.4440    1.4010 C   0  0  0  0  0  0  0  0  0  0  0  0
   -1.3970   -1.7850    0.9120 C   0  0  0  0  0  0  0  0  0  0  0  0
   -1.2810   -0.7040    1.0350 H   0  0  0  0  0  0  0  0  0  0  0  0
   -2.4610   -2.0310    0.9840 H   0  0  0  0  0  0  0  0  0  0  0  0
    3.0880    2.9060   -1.5620 C   0  0  0  0  0  0  0  0  0  0  0  0
    3.0440    3.3680   -2.5540 H   0  0  0  0  0  0  0  0  0  0  0  0
    4.1220    2.9620   -1.2080 H   0  0  0  0  0  0  0  0  0  0  0  0
   -5.8770    0.6570    1.7340 O   0  0  0  0  0  0  0  0  0  0  0  0
    1.9020    4.8600   -0.9070 O   0  0  0  0  0  0  0  0  0  0  0  0
   -1.4980   -1.6330   -1.6370 C   0  0  2  0  0  0  0  0  0  0  0  0
   -4.9600    1.9370   -0.0640 C   0  0  3  0  0  0  0  0  0  0  0  0
    1.5640   -3.4470    2.4280 C   0  0  0  0  0  0  0  0  0  0  0  0
    1.4040   -4.5040    2.1870 H   0  0  0  0  0  0  0  0  0  0  0  0
    1.1980   -3.2940    3.4510 H   0  0  0  0  0  0  0  0  0  0  0  0
    2.6390   -3.2620    2.4910 H   0  0  0  0  0  0  0  0  0  0  0  0
    2.5480   -3.0960   -0.0700 C   0  0  0  0  0  0  0  0  0  0  0  0
    3.1790   -2.8890   -0.9470 H   0  0  0  0  0  0  0  0  0  0  0  0
    2.6400   -4.1780    0.1080 H   0  0  0  0  0  0  0  0  0  0  0  0
    3.1430   -2.5900    0.6970 H   0  0  0  0  0  0  0  0  0  0  0  0
    4.0860    0.0480   -0.2250 C   0  0  0  0  0  0  0  0  0  0  0  0
    4.2540   -0.6580   -1.0420 H   0  0  0  0  0  0  0  0  0  0  0  0
    4.2380   -0.4910    0.7150 H   0  0  0  0  0  0  0  0  0  0  0  0
    4.8820    0.7980   -0.2960 H   0  0  0  0  0  0  0  0  0  0  0  0
   -4.0030    1.9020    2.1070 O   0  5  0  0  0  0  0  0  0  0  0  0
    0.2290    2.7310    0.5440 C   0  0  0  0  0  0  0  0  0  0  0  0
   -0.1370    2.0920    1.3530 H   0  0  0  0  0  0  0  0  0  0  0  0
   -0.0160    2.2610   -0.4110 H   0  0  0  0  0  0  0  0  0  0  0  0
   -0.3490    3.6620    0.5740 H   0  0  0  0  0  0  0  0  0  0  0  0
    1.9470    4.0420    1.8050 C   0  0  0  0  0  0  0  0  0  0  0  0
    1.5180    3.7140    2.7560 H   0  0  0  0  0  0  0  0  0  0  0  0
    1.4750    5.0040    1.5710 H   0  0  0  0  0  0  0  0  0  0  0  0
    3.0140    4.2400    1.9580 H   0  0  0  0  0  0  0  0  0  0  0  0
   -3.3750    0.0970   -0.9430 C   0  0  0  0  0  0  0  0  0  0  0  0
   -3.5090   -0.4150    0.0110 H   0  0  0  0  0  0  0  0  0  0  0  0
   -4.1230   -0.3040   -1.6350 H   0  0  0  0  0  0  0  0  0  0  0  0
   -1.9690   -0.1580   -1.5060 C   0  0  0  0  0  0  0  0  0  0  0  0
   -1.2450    0.4190   -0.9360 H   0  0  0  0  0  0  0  0  0  0  0  0
   -1.9490    0.2790   -2.5150 H   0  0  0  0  0  0  0  0  0  0  0  0
   -3.6260    1.6010   -0.7530 C   0  0  0  0  0  0  0  0  0  0  0  0
   -3.5960    2.0930   -1.7330 H   0  0  0  0  0  0  0  0  0  0  0  0
   -2.8000    2.0310   -0.1720 H   0  0  0  0  0  0  0  0  0  0  0  0
   -2.6760   -2.5320   -2.0760 C   0  0  0  0  0  0  0  0  0  0  0  0
   -3.1860   -2.1080   -2.9480 H   0  0  0  0  0  0  0  0  0  0  0  0
   -3.4100   -2.6620   -1.2740 H   0  0  0  0  0  0  0  0  0  0  0  0
   -2.3170   -3.5260   -2.3650 H   0  0  0  0  0  0  0  0  0  0  0  0
   -6.1650    1.4590   -0.8680 C   0  0  0  0  0  0  0  0  0  0  0  0
   -6.1200    1.8300   -1.8970 H   0  0  0  0  0  0  0  0  0  0  0  0
   -7.0950    1.8280   -0.4220 H   0  0  0  0  0  0  0  0  0  0  0  0
   -6.2320    0.3670   -0.9000 H   0  0  0  0  0  0  0  0  0  0  0  0
    0.6170    0.1450   -0.3430 H   0  0  0  0  0  0  0  0  0  0  0  0
    3.6150    2.1430    1.0110 H   0  0  0  0  0  0  0  0  0  0  0  0
   -1.1410   -3.3510   -0.4150 H   0  0  0  0  0  0  0  0  0  0  0  0
   -0.8520   -1.6240   -2.5140 H   0  0  0  0  0  0  0  0  0  0  0  0
   -5.0280    3.0330   -0.0060 H   0  0  0  0  0  0  0  0  0  0  0  0
  1  2  1  0  0  0  0
  1  3  1  0  0  0  0
  1 11  1  0  0  0  0
  1 38  1  0  0  0  0
  2  5  1  0  0  0  0
  2  8  2  0  0  0  0
  3 10  1  0  0  0  0
  3 14  1  0  0  0  0
  3 42  1  0  0  0  0
  4  5  1  0  0  0  0
  4  6  1  0  0  0  0
  4 21  1  0  0  0  0
  4 46  1  0  0  0  0
  5 24  1  0  0  0  0
  5 76  1  0  0  0  0
  6  7  1  0  0  0  0
  6 17  1  0  0  0  0
  6 77  1  0  0  0  0
  7 20  1  0  0  0  0
  7 51  1  0  0  0  0
  7 55  1  0  0  0  0
  8  9  1  0  0  0  0
  8 17  1  0  0  0  0
 10 28  1  0  0  0  0
 10 36  1  0  0  0  0
 10 78  1  0  0  0  0
 11 12  1  0  0  0  0
 11 13  1  0  0  0  0
 11 28  1  0  0  0  0
 14 15  1  0  0  0  0
 14 16  1  0  0  0  0
 14 24  1  0  0  0  0
 17 18  1  0  0  0  0
 17 19  1  0  0  0  0
 20 31  1  0  0  0  0
 20 35  2  0  0  0  0
 21 22  1  0  0  0  0
 21 23  1  0  0  0  0
 21 31  1  0  0  0  0
 24 25  1  0  0  0  0
 24 26  1  0  0  0  0
 27 34  2  0  0  0  0
 27 37  1  0  0  0  0
 27 50  1  0  0  0  0
 28 29  1  0  0  0  0
 28 30  1  0  0  0  0
 31 32  1  0  0  0  0
 31 33  1  0  0  0  0
 36 62  1  0  0  0  0
 36 68  1  0  0  0  0
 36 79  1  0  0  0  0
 37 65  1  0  0  0  0
 37 72  1  0  0  0  0
 37 80  1  0  0  0  0
 38 39  1  0  0  0  0
 38 40  1  0  0  0  0
 38 41  1  0  0  0  0
 42 43  1  0  0  0  0
 42 44  1  0  0  0  0
 42 45  1  0  0  0  0
 46 47  1  0  0  0  0
 46 48  1  0  0  0  0
 46 49  1  0  0  0  0
 51 52  1  0  0  0  0
 51 53  1  0  0  0  0
 51 54  1  0  0  0  0
 55 56  1  0  0  0  0
 55 57  1  0  0  0  0
 55 58  1  0  0  0  0
 59 60  1  0  0  0  0
 59 61  1  0  0  0  0
 59 62  1  0  0  0  0
 59 65  1  0  0  0  0
 62 63  1  0  0  0  0
 62 64  1  0  0  0  0
 65 66  1  0  0  0  0
 65 67  1  0  0  0  0
 68 69  1  0  0  0  0
 68 70  1  0  0  0  0
 68 71  1  0  0  0  0
 72 73  1  0  0  0  0
 72 74  1  0  0  0  0
 72 75  1  0  0  0  0
M  CHG  1  50  -1
M  END
>  <IDNUMBER>
AK-693/21212010

>  <NAME>
3-oxolanost-7-en-26-oic acid

>  <ADD_INFO>
http://www.specs.net/enter.php?specsid=AK-693/21212010

>  <H_ACCEPTORS>
3

>  <H_DONORS>
1

>  <ROTATABLE_BONDS>
6

>  <LOGP>
8.3199997

>  <LOGS>
-9.2299995

>  <TPSA>
54.369999

>  <PRICE>
N08

$$$$
AK-693/21212017
  MOE2011           3D

 33 34  0  0  0  0  0  0  0  0999 V2000
   -0.2910    0.6090   -0.5590 C   0  0  0  0  0  0  0  0  0  0  0  0
   -0.8010    1.8370   -0.2930 C   0  0  0  0  0  0  0  0  0  0  0  0
   -1.1040   -0.6390   -0.5810 C   0  0  0  0  0  0  0  0  0  0  0  0
   -2.3000    1.9210    0.0100 C   0  0  0  0  0  0  0  0  0  0  0  0
   -2.5310   -0.5450   -0.2630 C   0  0  0  0  0  0  0  0  0  0  0  0
   -3.1030    0.6840    0.0220 C   0  0  0  0  0  0  0  0  0  0  0  0
    1.1810    0.3970   -0.8890 C   0  0  0  0  0  0  0  0  0  0  0  0
    1.2770   -0.3330   -1.7020 H   0  0  0  0  0  0  0  0  0  0  0  0
    1.6210    1.3180   -1.2850 H   0  0  0  0  0  0  0  0  0  0  0  0
   -0.6130   -1.7320   -0.8510 O   0  0  0  0  0  0  0  0  0  0  0  0
   -2.8910    2.9750    0.2500 O   0  0  0  0  0  0  0  0  0  0  0  0
   -0.1920    2.9450   -0.2530 O   0  5  0  0  0  0  0  0  0  0  0  0
    1.9760   -0.0740    0.3370 C   0  0  0  0  0  0  0  0  0  0  0  0
    1.4850   -0.9550    0.7700 H   0  0  0  0  0  0  0  0  0  0  0  0
    1.9500    0.7050    1.1110 H   0  0  0  0  0  0  0  0  0  0  0  0
   -4.4730    0.7520    0.3260 C   0  0  0  0  0  0  0  0  0  0  0  0
   -4.9370    1.7110    0.5510 H   0  0  0  0  0  0  0  0  0  0  0  0
   -3.3150   -1.7090   -0.2490 C   0  0  0  0  0  0  0  0  0  0  0  0
   -2.8690   -2.6760   -0.4730 H   0  0  0  0  0  0  0  0  0  0  0  0
    3.4390   -0.4350    0.0180 C   0  0  0  0  0  0  0  0  0  0  0  0
    3.4490   -1.1950   -0.7740 H   0  0  0  0  0  0  0  0  0  0  0  0
   -4.6750   -1.6370    0.0540 C   0  0  0  0  0  0  0  0  0  0  0  0
   -5.2790   -2.5400    0.0650 H   0  0  0  0  0  0  0  0  0  0  0  0
   -5.2540   -0.4040    0.3420 C   0  0  0  0  0  0  0  0  0  0  0  0
   -6.3130   -0.3410    0.5790 H   0  0  0  0  0  0  0  0  0  0  0  0
    4.1050   -1.0410    1.2560 C   0  0  0  0  0  0  0  0  0  0  0  0
    4.1270   -0.3260    2.0850 H   0  0  0  0  0  0  0  0  0  0  0  0
    5.1360   -1.3400    1.0370 H   0  0  0  0  0  0  0  0  0  0  0  0
    3.5650   -1.9330    1.5910 H   0  0  0  0  0  0  0  0  0  0  0  0
    4.2480    0.7700   -0.4630 C   0  0  0  0  0  0  0  0  0  0  0  0
    4.2080    1.5890    0.2630 H   0  0  0  0  0  0  0  0  0  0  0  0
    3.8760    1.1440   -1.4220 H   0  0  0  0  0  0  0  0  0  0  0  0
    5.2990    0.4990   -0.6090 H   0  0  0  0  0  0  0  0  0  0  0  0
  1  2  2  0  0  0  0
  1  3  1  0  0  0  0
  1  7  1  0  0  0  0
  2  4  1  0  0  0  0
  2 12  1  0  0  0  0
  3  5  1  0  0  0  0
  3 10  2  0  0  0  0
  4  6  1  0  0  0  0
  4 11  2  0  0  0  0
  5  6  2  0  0  0  0
  5 18  1  0  0  0  0
  6 16  1  0  0  0  0
  7  8  1  0  0  0  0
  7  9  1  0  0  0  0
  7 13  1  0  0  0  0
 13 14  1  0  0  0  0
 13 15  1  0  0  0  0
 13 20  1  0  0  0  0
 16 17  1  0  0  0  0
 16 24  2  0  0  0  0
 18 19  1  0  0  0  0
 18 22  2  0  0  0  0
 20 21  1  0  0  0  0
 20 26  1  0  0  0  0
 20 30  1  0  0  0  0
 22 23  1  0  0  0  0
 22 24  1  0  0  0  0
 24 25  1  0  0  0  0
 26 27  1  0  0  0  0
 26 28  1  0  0  0  0
 26 29  1  0  0  0  0
 30 31  1  0  0  0  0
 30 32  1  0  0  0  0
 30 33  1  0  0  0  0
M  CHG  1  12  -1
M  END
>  <IDNUMBER>
AK-693/21212017

>  <NAME>
2-hydroxy-3-isopentylnaphthoquinone

>  <ADD_INFO>
http://www.specs.net/enter.php?specsid=AK-693/21212017

>  <H_ACCEPTORS>
3

>  <H_DONORS>
1

>  <ROTATABLE_BONDS>
3

>  <LOGP>
3.21

>  <LOGS>
-3.73

>  <TPSA>
54.369999

>  <PRICE>
N08

$$$$
AK-693/21212018
  MOE2011           3D

 35 36  0  0  1  0  0  0  0  0999 V2000
   -1.4940    0.5400   -0.2780 C   0  0  0  0  0  0  0  0  0  0  0  0
   -1.4620   -0.2530    0.8450 C   0  0  0  0  0  0  0  0  0  0  0  0
    1.0050    0.1800   -0.5080 C   0  0  1  0  0  0  0  0  0  0  0  0
    1.7310    1.2760    0.2730 C   0  0  0  0  0  0  0  0  0  0  0  0
    0.8000   -1.1770    0.3070 C   0  0  1  0  0  0  0  0  0  0  0  0
   -0.3120    0.7060   -1.1700 C   0  0  0  0  0  0  0  0  0  0  0  0
   -0.5000    0.1380   -2.0900 H   0  0  0  0  0  0  0  0  0  0  0  0
   -0.2050    1.7550   -1.4710 H   0  0  0  0  0  0  0  0  0  0  0  0
   -2.6490   -0.2440    1.4920 O   0  0  0  0  0  0  0  0  0  0  0  0
   -2.8080    1.0790   -0.3420 C   0  0  0  0  0  0  0  0  0  0  0  0
    3.2540    1.4210    0.0260 C   0  0  0  0  0  0  0  0  0  0  0  0
   -0.3240   -1.0300    1.3900 C   0  0  0  0  0  0  0  0  0  0  0  0
    0.0580   -0.5010    2.2710 H   0  0  0  0  0  0  0  0  0  0  0  0
   -0.6660   -2.0150    1.7320 H   0  0  0  0  0  0  0  0  0  0  0  0
   -3.4620    0.5700    0.7660 C   0  0  0  0  0  0  0  0  0  0  0  0
   -4.4620    0.6880    1.1570 H   0  0  0  0  0  0  0  0  0  0  0  0
    0.3770   -2.2800   -0.6850 C   0  0  0  0  0  0  0  0  0  0  0  0
   -0.6340   -2.1980   -1.0850 H   0  0  0  0  0  0  0  0  0  0  0  0
    1.1760    2.1600    1.1210 C   0  0  0  0  0  0  0  0  0  0  0  0
    1.7870    2.9100    1.6180 H   0  0  0  0  0  0  0  0  0  0  0  0
    0.1190    2.1640    1.3540 H   0  0  0  0  0  0  0  0  0  0  0  0
    3.5980    1.4140   -1.1900 O   0  0  0  0  0  0  0  0  0  0  0  0
    1.1040   -3.3190   -1.1200 C   0  0  0  0  0  0  0  0  0  0  0  0
    0.6810   -4.0240   -1.8290 H   0  0  0  0  0  0  0  0  0  0  0  0
    2.1260   -3.4940   -0.8040 H   0  0  0  0  0  0  0  0  0  0  0  0
    3.9650    1.5250    1.0670 O   0  5  0  0  0  0  0  0  0  0  0  0
    2.0990   -1.5780    1.0480 C   0  0  0  0  0  0  0  0  0  0  0  0
    1.9980   -2.5610    1.5230 H   0  0  0  0  0  0  0  0  0  0  0  0
    2.3450   -0.8720    1.8490 H   0  0  0  0  0  0  0  0  0  0  0  0
    2.9570   -1.6170    0.3680 H   0  0  0  0  0  0  0  0  0  0  0  0
   -3.3570    1.9960   -1.3670 C   0  0  0  0  0  0  0  0  0  0  0  0
   -3.1290    1.6310   -2.3730 H   0  0  0  0  0  0  0  0  0  0  0  0
   -2.9240    2.9940   -1.2550 H   0  0  0  0  0  0  0  0  0  0  0  0
   -4.4450    2.0840   -1.2780 H   0  0  0  0  0  0  0  0  0  0  0  0
    1.6540   -0.0670   -1.3610 H   0  0  0  0  0  0  0  0  0  0  0  0
  1  2  2  0  0  0  0
  1  6  1  0  0  0  0
  1 10  1  0  0  0  0
  2  9  1  0  0  0  0
  2 12  1  0  0  0  0
  3  4  1  0  0  0  0
  3  5  1  0  0  0  0
  3  6  1  0  0  0  0
  3 35  1  0  0  0  0
  4 11  1  0  0  0  0
  4 19  2  0  0  0  0
  5 12  1  0  0  0  0
  5 17  1  0  0  0  0
  5 27  1  0  0  0  0
  6  7  1  0  0  0  0
  6  8  1  0  0  0  0
  9 15  1  0  0  0  0
 10 15  2  0  0  0  0
 10 31  1  0  0  0  0
 11 22  2  0  0  0  0
 11 26  1  0  0  0  0
 12 13  1  0  0  0  0
 12 14  1  0  0  0  0
 15 16  1  0  0  0  0
 17 18  1  0  0  0  0
 17 23  2  0  0  0  0
 19 20  1  0  0  0  0
 19 21  1  0  0  0  0
 23 24  1  0  0  0  0
 23 25  1  0  0  0  0
 27 28  1  0  0  0  0
 27 29  1  0  0  0  0
 27 30  1  0  0  0  0
 31 32  1  0  0  0  0
 31 33  1  0  0  0  0
 31 34  1  0  0  0  0
M  CHG  1  26  -1
M  END
>  <IDNUMBER>
AK-693/21212018

>  <NAME>
2-(3,6-dimethyl-6-vinyl-4,5,6,7-tetrahydro-1-benzofuran-5-yl)acrylic acid

>  <ADD_INFO>
http://www.specs.net/enter.php?specsid=AK-693/21212018

>  <H_ACCEPTORS>
2

>  <H_DONORS>
1

>  <ROTATABLE_BONDS>
3

>  <LOGP>
5.1799998

>  <LOGS>
-5.0300002

>  <TPSA>
50.439999

>  <PRICE>
N07

$$$$
AK-693/21212019
  MOE2011           3D

 82 83  0  0  1  0  0  0  0  0999 V2000
   -1.0670   -0.6550   -0.6600 C   0  0  0  0  0  0  0  0  0  0  0  0
    1.3750    0.0280   -0.7340 C   0  0  0  0  0  0  0  0  0  0  0  0
    2.6020    2.1520   -0.4090 C   0  0  0  0  0  0  0  0  0  0  0  0
   -2.5660   -1.4760    1.1090 C   0  0  0  0  0  0  0  0  0  0  0  0
    1.5410    1.4090   -0.9710 C   0  0  0  0  0  0  0  0  0  0  0  0
   -1.3310   -1.5030    0.4270 C   0  0  0  0  0  0  0  0  0  0  0  0
    3.3700    0.1280    0.7190 C   0  0  0  0  0  0  0  0  0  0  0  0
   -3.3470    0.2690   -0.4010 C   0  0  0  0  0  0  0  0  0  0  0  0
    2.2790   -0.5720    0.1600 C   0  0  0  0  0  0  0  0  0  0  0  0
   -2.0740    0.2720   -1.0050 C   0  0  0  0  0  0  0  0  0  0  0  0
    3.5360    1.4880    0.3920 C   0  0  0  0  0  0  0  0  0  0  0  0
   -3.5910   -0.6460    0.6390 C   0  0  0  0  0  0  0  0  0  0  0  0
    0.2410   -0.7180   -1.4490 C   0  0  3  0  0  0  0  0  0  0  0  0
   -4.4100    1.2600   -0.8390 C   0  0  0  0  0  0  0  0  0  0  0  0
   -4.2730    1.5090   -1.9000 H   0  0  0  0  0  0  0  0  0  0  0  0
   -5.3930    0.7850   -0.8160 H   0  0  0  0  0  0  0  0  0  0  0  0
    4.3280   -0.5820    1.6630 C   0  0  0  0  0  0  0  0  0  0  0  0
    4.5090    0.0740    2.5200 H   0  0  0  0  0  0  0  0  0  0  0  0
    3.8620   -1.4740    2.0980 H   0  0  0  0  0  0  0  0  0  0  0  0
   -2.7030   -2.3430    2.3110 C   0  0  0  0  0  0  0  0  0  0  0  0
    2.6680    3.6110   -0.7300 C   0  0  0  0  0  0  0  0  0  0  0  0
   -4.3740    2.5410   -0.0490 C   0  0  0  0  0  0  0  0  0  0  0  0
   -3.4670    3.1250   -0.2080 H   0  0  0  0  0  0  0  0  0  0  0  0
    5.5970   -1.0040    0.9710 C   0  0  0  0  0  0  0  0  0  0  0  0
    5.4270   -1.6320    0.0950 H   0  0  0  0  0  0  0  0  0  0  0  0
    0.6080   -2.1190   -2.0270 C   0  0  0  0  0  0  0  0  0  0  0  0
    1.5560   -2.0280   -2.5770 H   0  0  0  0  0  0  0  0  0  0  0  0
    0.8010   -2.8470   -1.2370 H   0  0  0  0  0  0  0  0  0  0  0  0
   -5.3120    3.0400    0.7810 C   0  0  0  0  0  0  0  0  0  0  0  0
    6.8710   -0.7160    1.3060 C   0  0  0  0  0  0  0  0  0  0  0  0
    1.9510    4.0170   -1.6510 O   0  0  0  0  0  0  0  0  0  0  0  0
   -1.9690   -3.3350    2.3730 O   0  0  0  0  0  0  0  0  0  0  0  0
    0.6080    2.0330   -1.7860 O   0  0  0  0  0  0  0  0  0  0  0  0
    0.9600    2.9490   -1.9650 H   0  0  0  0  0  0  0  0  0  0  0  0
   -0.3350   -2.3680    0.8400 O   0  0  0  0  0  0  0  0  0  0  0  0
   -0.7630   -3.0060    1.4770 H   0  0  0  0  0  0  0  0  0  0  0  0
   -1.8450    1.2330   -1.9590 O   0  0  0  0  0  0  0  0  0  0  0  0
   -0.9030    1.5210   -1.8970 H   0  0  0  0  0  0  0  0  0  0  0  0
    2.1290   -1.8770    0.5470 O   0  0  0  0  0  0  0  0  0  0  0  0
    1.1630   -2.0600    0.6280 H   0  0  0  0  0  0  0  0  0  0  0  0
    4.6290    2.1750    0.8480 O   0  0  0  0  0  0  0  0  0  0  0  0
    5.3490    1.5480    1.0340 H   0  0  0  0  0  0  0  0  0  0  0  0
   -4.8400   -0.6830    1.2050 O   0  0  0  0  0  0  0  0  0  0  0  0
   -0.4530   -2.7370   -2.9700 C   0  0  0  0  0  0  0  0  0  0  0  0
   -1.4080   -2.8190   -2.4370 H   0  0  0  0  0  0  0  0  0  0  0  0
   -3.6440   -1.9820    3.4280 C   0  0  0  0  0  0  0  0  0  0  0  0
   -4.6150   -2.4550    3.2700 H   0  0  0  0  0  0  0  0  0  0  0  0
   -3.7490   -0.8980    3.5230 H   0  0  0  0  0  0  0  0  0  0  0  0
   -3.2220   -2.3450    4.3720 H   0  0  0  0  0  0  0  0  0  0  0  0
    3.5380    4.5560    0.0510 C   0  0  0  0  0  0  0  0  0  0  0  0
    3.4370    4.3820    1.1260 H   0  0  0  0  0  0  0  0  0  0  0  0
    3.2040    5.5810   -0.1390 H   0  0  0  0  0  0  0  0  0  0  0  0
    4.5780    4.4690   -0.2730 H   0  0  0  0  0  0  0  0  0  0  0  0
   -6.6210    2.3820    1.1140 C   0  0  0  0  0  0  0  0  0  0  0  0
   -6.6850    2.1990    2.1920 H   0  0  0  0  0  0  0  0  0  0  0  0
   -6.7720    1.4240    0.6140 H   0  0  0  0  0  0  0  0  0  0  0  0
   -7.4530    3.0340    0.8260 H   0  0  0  0  0  0  0  0  0  0  0  0
   -5.0960    4.3620    1.4710 C   0  0  0  0  0  0  0  0  0  0  0  0
   -5.8850    5.0680    1.1940 H   0  0  0  0  0  0  0  0  0  0  0  0
   -4.1360    4.8180    1.2070 H   0  0  0  0  0  0  0  0  0  0  0  0
   -5.1130    4.2290    2.5580 H   0  0  0  0  0  0  0  0  0  0  0  0
    8.0120   -1.2340    0.4680 C   0  0  0  0  0  0  0  0  0  0  0  0
    8.6610   -1.8800    1.0690 H   0  0  0  0  0  0  0  0  0  0  0  0
    8.6090   -0.4000    0.0840 H   0  0  0  0  0  0  0  0  0  0  0  0
    7.6670   -1.8180   -0.3920 H   0  0  0  0  0  0  0  0  0  0  0  0
    7.3060    0.0950    2.4950 C   0  0  0  0  0  0  0  0  0  0  0  0
    7.9760   -0.4960    3.1280 H   0  0  0  0  0  0  0  0  0  0  0  0
    6.4780    0.4270    3.1240 H   0  0  0  0  0  0  0  0  0  0  0  0
    7.8450    0.9890    2.1620 H   0  0  0  0  0  0  0  0  0  0  0  0
   -5.6370   -1.7010    0.5890 C   0  0  0  0  0  0  0  0  0  0  0  0
   -6.6420   -1.6410    1.0170 H   0  0  0  0  0  0  0  0  0  0  0  0
   -5.2370   -2.6980    0.7980 H   0  0  0  0  0  0  0  0  0  0  0  0
   -5.7190   -1.5500   -0.4930 H   0  0  0  0  0  0  0  0  0  0  0  0
   -0.0260   -4.1570   -3.3600 C   0  0  0  0  0  0  0  0  0  0  0  0
    0.9240   -4.1500   -3.9050 H   0  0  0  0  0  0  0  0  0  0  0  0
   -0.7810   -4.6290   -3.9990 H   0  0  0  0  0  0  0  0  0  0  0  0
    0.0950   -4.7850   -2.4720 H   0  0  0  0  0  0  0  0  0  0  0  0
   -0.6810   -1.9090   -4.2370 C   0  0  0  0  0  0  0  0  0  0  0  0
    0.2610   -1.7240   -4.7640 H   0  0  0  0  0  0  0  0  0  0  0  0
   -1.1420   -0.9440   -4.0090 H   0  0  0  0  0  0  0  0  0  0  0  0
   -1.3560   -2.4300   -4.9250 H   0  0  0  0  0  0  0  0  0  0  0  0
    0.0890   -0.1590   -2.3780 H   0  0  0  0  0  0  0  0  0  0  0  0
  1  6  2  0  0  0  0
  1 10  1  0  0  0  0
  1 13  1  0  0  0  0
  2  5  2  0  0  0  0
  2  9  1  0  0  0  0
  2 13  1  0  0  0  0
  3  5  1  0  0  0  0
  3 11  2  0  0  0  0
  3 21  1  0  0  0  0
  4  6  1  0  0  0  0
  4 12  2  0  0  0  0
  4 20  1  0  0  0  0
  5 33  1  0  0  0  0
  6 35  1  0  0  0  0
  7  9  2  0  0  0  0
  7 11  1  0  0  0  0
  7 17  1  0  0  0  0
  8 10  2  0  0  0  0
  8 12  1  0  0  0  0
  8 14  1  0  0  0  0
  9 39  1  0  0  0  0
 10 37  1  0  0  0  0
 11 41  1  0  0  0  0
 12 43  1  0  0  0  0
 13 26  1  0  0  0  0
 13 82  1  0  0  0  0
 14 15  1  0  0  0  0
 14 16  1  0  0  0  0
 14 22  1  0  0  0  0
 17 18  1  0  0  0  0
 17 19  1  0  0  0  0
 17 24  1  0  0  0  0
 20 32  2  0  0  0  0
 20 46  1  0  0  0  0
 21 31  2  0  0  0  0
 21 50  1  0  0  0  0
 22 23  1  0  0  0  0
 22 29  2  0  0  0  0
 24 25  1  0  0  0  0
 24 30  2  0  0  0  0
 26 27  1  0  0  0  0
 26 28  1  0  0  0  0
 26 44  1  0  0  0  0
 29 54  1  0  0  0  0
 29 58  1  0  0  0  0
 30 62  1  0  0  0  0
 30 66  1  0  0  0  0
 33 34  1  0  0  0  0
 35 36  1  0  0  0  0
 37 38  1  0  0  0  0
 39 40  1  0  0  0  0
 41 42  1  0  0  0  0
 43 70  1  0  0  0  0
 44 45  1  0  0  0  0
 44 74  1  0  0  0  0
 44 78  1  0  0  0  0
 46 47  1  0  0  0  0
 46 48  1  0  0  0  0
 46 49  1  0  0  0  0
 50 51  1  0  0  0  0
 50 52  1  0  0  0  0
 50 53  1  0  0  0  0
 54 55  1  0  0  0  0
 54 56  1  0  0  0  0
 54 57  1  0  0  0  0
 58 59  1  0  0  0  0
 58 60  1  0  0  0  0
 58 61  1  0  0  0  0
 62 63  1  0  0  0  0
 62 64  1  0  0  0  0
 62 65  1  0  0  0  0
 66 67  1  0  0  0  0
 66 68  1  0  0  0  0
 66 69  1  0  0  0  0
 70 71  1  0  0  0  0
 70 72  1  0  0  0  0
 70 73  1  0  0  0  0
 74 75  1  0  0  0  0
 74 76  1  0  0  0  0
 74 77  1  0  0  0  0
 78 79  1  0  0  0  0
 78 80  1  0  0  0  0
 78 81  1  0  0  0  0
M  END
>  <IDNUMBER>
AK-693/21212019

>  <NAME>
1-[3-{1-[3-acetyl-2,6-dihydroxy-4-methoxy-5-(3-methyl-2-butenyl)phenyl]-3-methylbutyl}-2,4,6-trihydroxy-5-(3-methyl-2-butenyl)phenyl]ethanone

>  <ADD_INFO>
http://www.specs.net/enter.php?specsid=AK-693/21212019

>  <H_ACCEPTORS>
2

>  <H_DONORS>
5

>  <ROTATABLE_BONDS>
11

>  <LOGP>
9.6300001

>  <LOGS>
-10.88

>  <TPSA>
144.52

>  <PRICE>
N07

$$$$
AK-693/40757284
  MOE2011           3D

 61 66  0  0  1  0  0  0  0  0999 V2000
   -1.6790   -1.3100   -0.4670 C   0  0  1  0  0  0  0  0  0  0  0  0
   -0.6890   -2.3560    0.0580 C   0  0  0  0  0  0  0  0  0  0  0  0
    0.5720   -2.0750    0.6160 C   0  0  0  0  0  0  0  0  0  0  0  0
   -2.8720   -1.1690    0.4650 C   0  0  0  0  0  0  0  0  0  0  0  0
    1.4520   -3.1180    0.9330 C   0  0  0  0  0  0  0  0  0  0  0  0
   -3.6360    0.0850    0.4170 C   0  0  0  0  0  0  0  0  0  0  0  0
   -1.1640    0.1020   -0.8400 C   0  0  2  0  0  0  0  0  0  0  0  0
    0.9110   -0.7700    0.8700 O   0  0  0  0  0  0  0  0  0  0  0  0
   -2.2330    0.9060   -1.3830 O   0  0  0  0  0  0  0  0  0  0  0  0
    2.7780   -2.7980    1.4710 C   0  0  0  0  0  0  0  0  0  0  0  0
    2.1780   -0.4700    1.3390 C   0  0  0  0  0  0  0  0  0  0  0  0
   -3.2840    1.0530   -0.5200 C   0  0  0  0  0  0  0  0  0  0  0  0
    3.1100   -1.3810    1.6480 C   0  0  0  0  0  0  0  0  0  0  0  0
    4.0950   -1.1420    2.0290 H   0  0  0  0  0  0  0  0  0  0  0  0
   -1.0500   -3.7190   -0.0370 C   0  0  0  0  0  0  0  0  0  0  0  0
    1.0880   -4.4520    0.7410 C   0  0  0  0  0  0  0  0  0  0  0  0
   -4.7490    0.2770    1.2440 C   0  0  0  0  0  0  0  0  0  0  0  0
   -0.1750   -4.7590    0.2680 C   0  0  0  0  0  0  0  0  0  0  0  0
   -0.4880   -5.7920    0.1590 H   0  0  0  0  0  0  0  0  0  0  0  0
    2.4320    0.9740    1.4850 C   0  0  0  0  0  0  0  0  0  0  0  0
   -4.0530    2.2100   -0.6470 C   0  0  0  0  0  0  0  0  0  0  0  0
   -3.7830    2.9500   -1.3940 H   0  0  0  0  0  0  0  0  0  0  0  0
   -5.5050    1.4380    1.1390 C   0  0  0  0  0  0  0  0  0  0  0  0
   -6.3700    1.5900    1.7770 H   0  0  0  0  0  0  0  0  0  0  0  0
    3.5830    1.5640    0.9440 C   0  0  0  0  0  0  0  0  0  0  0  0
    4.3280    0.9680    0.4220 H   0  0  0  0  0  0  0  0  0  0  0  0
   -0.0600    0.1500   -1.8890 C   0  0  0  0  0  0  0  0  0  0  0  0
    3.7780    2.9350    1.0650 C   0  0  0  0  0  0  0  0  0  0  0  0
   -3.3030   -2.0910    1.1650 O   0  0  0  0  0  0  0  0  0  0  0  0
   -5.1540    2.3950    0.1900 C   0  0  0  0  0  0  0  0  0  0  0  0
    3.5620   -3.7010    1.7490 O   0  0  0  0  0  0  0  0  0  0  0  0
    2.8300    3.7390    1.6890 C   0  0  0  0  0  0  0  0  0  0  0  0
    1.4890    1.7910    2.1350 C   0  0  0  0  0  0  0  0  0  0  0  0
    0.5870    1.3580    2.5620 H   0  0  0  0  0  0  0  0  0  0  0  0
    1.6890    3.1720    2.2380 C   0  0  0  0  0  0  0  0  0  0  0  0
    0.9500    3.7980    2.7300 H   0  0  0  0  0  0  0  0  0  0  0  0
    0.8790    1.1960   -1.8400 C   0  0  0  0  0  0  0  0  0  0  0  0
    0.8040    1.9640   -1.0720 H   0  0  0  0  0  0  0  0  0  0  0  0
    0.0530   -0.7940   -2.9230 C   0  0  0  0  0  0  0  0  0  0  0  0
   -0.6630   -1.6030   -3.0330 H   0  0  0  0  0  0  0  0  0  0  0  0
   -2.3260   -4.0760   -0.3860 O   0  0  0  0  0  0  0  0  0  0  0  0
   -2.9180   -3.5710    0.2180 H   0  0  0  0  0  0  0  0  0  0  0  0
    1.9350   -5.4880    1.0320 O   0  0  0  0  0  0  0  0  0  0  0  0
    2.7710   -5.0940    1.3830 H   0  0  0  0  0  0  0  0  0  0  0  0
   -5.1480   -0.6620    2.1570 O   0  0  0  0  0  0  0  0  0  0  0  0
   -4.5670   -1.4520    2.0420 H   0  0  0  0  0  0  0  0  0  0  0  0
    2.0360    0.3010   -3.7510 C   0  0  0  0  0  0  0  0  0  0  0  0
    4.9230    3.4790    0.5610 O   0  0  0  0  0  0  0  0  0  0  0  0
    5.3510    3.9550    1.2970 H   0  0  0  0  0  0  0  0  0  0  0  0
    1.1010   -0.7220   -3.8450 C   0  0  0  0  0  0  0  0  0  0  0  0
    1.1860   -1.4640   -4.6330 H   0  0  0  0  0  0  0  0  0  0  0  0
    1.9310    1.2680   -2.7580 C   0  0  0  0  0  0  0  0  0  0  0  0
    2.6480    2.0800   -2.6800 H   0  0  0  0  0  0  0  0  0  0  0  0
   -5.9330    3.5120    0.1010 O   0  0  0  0  0  0  0  0  0  0  0  0
   -5.5770    4.0880   -0.5960 H   0  0  0  0  0  0  0  0  0  0  0  0
    2.9810    5.0940    1.7480 O   0  0  0  0  0  0  0  0  0  0  0  0
    3.6260    5.3410    1.0610 H   0  0  0  0  0  0  0  0  0  0  0  0
    3.0490    0.3240   -4.6650 O   0  0  0  0  0  0  0  0  0  0  0  0
    3.6280    1.0770   -4.4660 H   0  0  0  0  0  0  0  0  0  0  0  0
   -2.1230   -1.7280   -1.3840 H   0  0  0  0  0  0  0  0  0  0  0  0
   -0.8100    0.6200    0.0620 H   0  0  0  0  0  0  0  0  0  0  0  0
  1  2  1  0  0  0  0
  1  4  1  0  0  0  0
  1  7  1  0  0  0  0
  1 60  1  0  0  0  0
  2  3  2  0  0  0  0
  2 15  1  0  0  0  0
  3  5  1  0  0  0  0
  3  8  1  0  0  0  0
  4  6  1  0  0  0  0
  4 29  2  0  0  0  0
  5 10  1  0  0  0  0
  5 16  2  0  0  0  0
  6 12  2  0  0  0  0
  6 17  1  0  0  0  0
  7  9  1  0  0  0  0
  7 27  1  0  0  0  0
  7 61  1  0  0  0  0
  8 11  1  0  0  0  0
  9 12  1  0  0  0  0
 10 13  1  0  0  0  0
 10 31  2  0  0  0  0
 11 13  2  0  0  0  0
 11 20  1  0  0  0  0
 12 21  1  0  0  0  0
 13 14  1  0  0  0  0
 15 18  2  0  0  0  0
 15 41  1  0  0  0  0
 16 18  1  0  0  0  0
 16 43  1  0  0  0  0
 17 23  2  0  0  0  0
 17 45  1  0  0  0  0
 18 19  1  0  0  0  0
 20 25  2  0  0  0  0
 20 33  1  0  0  0  0
 21 22  1  0  0  0  0
 21 30  2  0  0  0  0
 23 24  1  0  0  0  0
 23 30  1  0  0  0  0
 25 26  1  0  0  0  0
 25 28  1  0  0  0  0
 27 37  2  0  0  0  0
 27 39  1  0  0  0  0
 28 32  2  0  0  0  0
 28 48  1  0  0  0  0
 30 54  1  0  0  0  0
 32 35  1  0  0  0  0
 32 56  1  0  0  0  0
 33 34  1  0  0  0  0
 33 35  2  0  0  0  0
 35 36  1  0  0  0  0
 37 38  1  0  0  0  0
 37 52  1  0  0  0  0
 39 40  1  0  0  0  0
 39 50  2  0  0  0  0
 41 42  1  0  0  0  0
 43 44  1  0  0  0  0
 45 46  1  0  0  0  0
 47 50  1  0  0  0  0
 47 52  2  0  0  0  0
 47 58  1  0  0  0  0
 48 49  1  0  0  0  0
 50 51  1  0  0  0  0
 52 53  1  0  0  0  0
 54 55  1  0  0  0  0
 56 57  1  0  0  0  0
 58 59  1  0  0  0  0
M  END
>  <IDNUMBER>
AK-693/40757284

>  <NAME>
2-(3,4-dihydroxyphenyl)-2'-(4-hydroxyphenyl)-3'-methyl-2',3'-dihydro-3',8-bis[5,7-dihydroxy-4H-chromen-4-one]

>  <ADD_INFO>
http://www.specs.net/enter.php?specsid=AK-693/40757284

>  <H_ACCEPTORS>
2

>  <H_DONORS>
7

>  <ROTATABLE_BONDS>
3

>  <LOGP>
4.6199999

>  <LOGS>
-6.6199999

>  <TPSA>
194.21001

>  <PRICE>
N07

$$$$
AK-693/40760140
  MOE2011           3D

 41 44  0  0  0  0  0  0  0  0999 V2000
   -3.0810    1.3820    0.0780 C   0  0  0  0  0  0  0  0  0  0  0  0
   -2.0830    0.4790   -0.1800 C   0  0  0  0  0  0  0  0  0  0  0  0
   -2.7650    2.7780    0.2720 C   0  0  0  0  0  0  0  0  0  0  0  0
   -0.6860    0.7850   -0.2820 C   0  0  0  0  0  0  0  0  0  0  0  0
   -2.5540   -0.7780   -0.3330 O   0  0  0  0  0  0  0  0  0  0  0  0
   -0.3630    2.1350   -0.0920 C   0  0  0  0  0  0  0  0  0  0  0  0
   -1.3830    3.1010    0.1770 O   0  0  0  0  0  0  0  0  0  0  0  0
   -3.9090   -0.6860   -0.1660 C   0  0  0  0  0  0  0  0  0  0  0  0
   -4.2850    0.6350    0.0910 C   0  0  0  0  0  0  0  0  0  0  0  0
    0.3240   -0.1370   -0.5470 C   0  0  0  0  0  0  0  0  0  0  0  0
    0.0710   -1.1840   -0.7000 H   0  0  0  0  0  0  0  0  0  0  0  0
    0.9500    2.5790   -0.1520 C   0  0  0  0  0  0  0  0  0  0  0  0
    1.1930    3.6250    0.0040 H   0  0  0  0  0  0  0  0  0  0  0  0
    1.6660    0.2860   -0.6200 C   0  0  0  0  0  0  0  0  0  0  0  0
    1.9570    1.6480   -0.4040 C   0  0  0  0  0  0  0  0  0  0  0  0
   -4.8010   -1.7550   -0.2390 C   0  0  0  0  0  0  0  0  0  0  0  0
   -4.4500   -2.7580   -0.4420 H   0  0  0  0  0  0  0  0  0  0  0  0
   -5.6480    0.9180    0.2910 C   0  0  0  0  0  0  0  0  0  0  0  0
   -5.9840    1.9310    0.4940 H   0  0  0  0  0  0  0  0  0  0  0  0
   -3.6090    3.6360    0.5020 O   0  0  0  0  0  0  0  0  0  0  0  0
    3.5370   -1.1150    0.2850 C   0  0  0  0  0  0  0  0  0  0  0  0
    2.9280   -1.4670    1.1200 H   0  0  0  0  0  0  0  0  0  0  0  0
    2.7380   -0.7370   -0.9320 C   0  0  0  0  0  0  0  0  0  0  0  0
    2.2740   -1.6490   -1.3280 H   0  0  0  0  0  0  0  0  0  0  0  0
    3.3540   -0.3500   -1.7480 H   0  0  0  0  0  0  0  0  0  0  0  0
    4.8730   -1.0770    0.4530 C   0  0  0  0  0  0  0  0  0  0  0  0
   -6.1460   -1.4390   -0.0360 C   0  0  0  0  0  0  0  0  0  0  0  0
   -6.5690   -0.1360    0.2240 C   0  0  0  0  0  0  0  0  0  0  0  0
   -7.6270    0.0640    0.3760 H   0  0  0  0  0  0  0  0  0  0  0  0
    3.2330    2.1410   -0.4260 O   0  0  0  0  0  0  0  0  0  0  0  0
    3.8570    1.4040   -0.3270 H   0  0  0  0  0  0  0  0  0  0  0  0
   -7.1070   -2.4110   -0.0850 O   0  0  0  0  0  0  0  0  0  0  0  0
   -6.6790   -3.2630   -0.2700 H   0  0  0  0  0  0  0  0  0  0  0  0
    5.4880   -1.4970    1.7640 C   0  0  0  0  0  0  0  0  0  0  0  0
    6.0550   -0.6670    2.1980 H   0  0  0  0  0  0  0  0  0  0  0  0
    6.1670   -2.3420    1.6100 H   0  0  0  0  0  0  0  0  0  0  0  0
    4.7360   -1.8050    2.4980 H   0  0  0  0  0  0  0  0  0  0  0  0
    5.8760   -0.6510   -0.5840 C   0  0  0  0  0  0  0  0  0  0  0  0
    6.5840   -1.4640   -0.7770 H   0  0  0  0  0  0  0  0  0  0  0  0
    6.4390    0.2180   -0.2260 H   0  0  0  0  0  0  0  0  0  0  0  0
    5.4280   -0.3790   -1.5410 H   0  0  0  0  0  0  0  0  0  0  0  0
  1  2  2  0  0  0  0
  1  3  1  0  0  0  0
  1  9  1  0  0  0  0
  2  4  1  0  0  0  0
  2  5  1  0  0  0  0
  3  7  1  0  0  0  0
  3 20  2  0  0  0  0
  4  6  2  0  0  0  0
  4 10  1  0  0  0  0
  5  8  1  0  0  0  0
  6  7  1  0  0  0  0
  6 12  1  0  0  0  0
  8  9  2  0  0  0  0
  8 16  1  0  0  0  0
  9 18  1  0  0  0  0
 10 11  1  0  0  0  0
 10 14  2  0  0  0  0
 12 13  1  0  0  0  0
 12 15  2  0  0  0  0
 14 15  1  0  0  0  0
 14 23  1  0  0  0  0
 15 30  1  0  0  0  0
 16 17  1  0  0  0  0
 16 27  2  0  0  0  0
 18 19  1  0  0  0  0
 18 28  2  0  0  0  0
 21 22  1  0  0  0  0
 21 23  1  0  0  0  0
 21 26  2  0  0  0  0
 23 24  1  0  0  0  0
 23 25  1  0  0  0  0
 26 34  1  0  0  0  0
 26 38  1  0  0  0  0
 27 28  1  0  0  0  0
 27 32  1  0  0  0  0
 28 29  1  0  0  0  0
 30 31  1  0  0  0  0
 32 33  1  0  0  0  0
 34 35  1  0  0  0  0
 34 36  1  0  0  0  0
 34 37  1  0  0  0  0
 38 39  1  0  0  0  0
 38 40  1  0  0  0  0
 38 41  1  0  0  0  0
M  END
>  <IDNUMBER>
AK-693/40760140

>  <NAME>
3,9-dihydroxy-2-(3-methyl-2-butenyl)-6H-[1]benzofuro[3,2-c]chromen-6-one

>  <ADD_INFO>
http://www.specs.net/enter.php?specsid=AK-693/40760140

>  <H_ACCEPTORS>
1

>  <H_DONORS>
2

>  <ROTATABLE_BONDS>
2

>  <LOGP>
3.9300001

>  <LOGS>
-5.5300002

>  <TPSA>
79.900002

>  <PRICE>
N07

$$$$
AK-693/40760141
  MOE2011           3D

 34 36  0  0  1  0  0  0  0  0999 V2000
   -1.3610   -0.2590    0.0710 C   0  0  0  0  0  0  0  0  0  0  0  0
   -1.9030    1.0310    0.0720 C   0  0  0  0  0  0  0  0  0  0  0  0
   -0.0080   -0.4740    0.1680 O   0  0  0  0  0  0  0  0  0  0  0  0
   -1.0060    2.1890    0.2170 C   0  0  0  0  0  0  0  0  0  0  0  0
   -3.2830    1.2220   -0.0290 C   0  0  0  0  0  0  0  0  0  0  0  0
   -2.2060   -1.3830    0.0050 C   0  0  0  0  0  0  0  0  0  0  0  0
    0.7840    0.6140   -0.3360 C   0  0  1  0  0  0  0  0  0  0  0  0
    0.4550    1.9060    0.4020 C   0  0  0  0  0  0  0  0  0  0  0  0
    1.0350    2.7420   -0.0050 H   0  0  0  0  0  0  0  0  0  0  0  0
    0.6460    1.8280    1.4780 H   0  0  0  0  0  0  0  0  0  0  0  0
   -3.5910   -1.1620   -0.1080 C   0  0  0  0  0  0  0  0  0  0  0  0
   -4.1280    0.1270   -0.1250 C   0  0  0  0  0  0  0  0  0  0  0  0
   -5.2010    0.2710   -0.2080 H   0  0  0  0  0  0  0  0  0  0  0  0
   -1.4930    3.3190    0.2320 O   0  0  0  0  0  0  0  0  0  0  0  0
    2.2510    0.2650   -0.1790 C   0  0  0  0  0  0  0  0  0  0  0  0
   -3.8450    2.4710   -0.0290 O   0  0  0  0  0  0  0  0  0  0  0  0
   -3.1070    3.1230    0.0700 H   0  0  0  0  0  0  0  0  0  0  0  0
   -4.4980   -2.1810   -0.2090 O   0  0  0  0  0  0  0  0  0  0  0  0
   -4.0350   -3.0320   -0.2490 H   0  0  0  0  0  0  0  0  0  0  0  0
   -1.6410   -2.7770    0.0290 C   0  0  0  0  0  0  0  0  0  0  0  0
   -2.1190   -3.3650    0.8200 H   0  0  0  0  0  0  0  0  0  0  0  0
   -0.5650   -2.7980    0.2270 H   0  0  0  0  0  0  0  0  0  0  0  0
   -1.8100   -3.2640   -0.9370 H   0  0  0  0  0  0  0  0  0  0  0  0
    2.7360   -0.3380    0.9920 C   0  0  0  0  0  0  0  0  0  0  0  0
    2.0560   -0.5850    1.8050 H   0  0  0  0  0  0  0  0  0  0  0  0
    3.1600    0.5750   -1.2030 C   0  0  0  0  0  0  0  0  0  0  0  0
    2.8180    1.0500   -2.1210 H   0  0  0  0  0  0  0  0  0  0  0  0
    4.0930   -0.6340    1.1310 C   0  0  0  0  0  0  0  0  0  0  0  0
    4.4560   -1.1040    2.0410 H   0  0  0  0  0  0  0  0  0  0  0  0
    4.5170    0.2770   -1.0630 C   0  0  0  0  0  0  0  0  0  0  0  0
    5.2120    0.5180   -1.8640 H   0  0  0  0  0  0  0  0  0  0  0  0
    4.9830   -0.3260    0.1030 C   0  0  0  0  0  0  0  0  0  0  0  0
    6.0390   -0.5560    0.2110 H   0  0  0  0  0  0  0  0  0  0  0  0
    0.5610    0.7120   -1.4090 H   0  0  0  0  0  0  0  0  0  0  0  0
  1  2  2  0  0  0  0
  1  3  1  0  0  0  0
  1  6  1  0  0  0  0
  2  4  1  0  0  0  0
  2  5  1  0  0  0  0
  3  7  1  0  0  0  0
  4  8  1  0  0  0  0
  4 14  2  0  0  0  0
  5 12  2  0  0  0  0
  5 16  1  0  0  0  0
  6 11  2  0  0  0  0
  6 20  1  0  0  0  0
  7  8  1  0  0  0  0
  7 15  1  0  0  0  0
  7 34  1  0  0  0  0
  8  9  1  0  0  0  0
  8 10  1  0  0  0  0
 11 12  1  0  0  0  0
 11 18  1  0  0  0  0
 12 13  1  0  0  0  0
 15 24  2  0  0  0  0
 15 26  1  0  0  0  0
 16 17  1  0  0  0  0
 18 19  1  0  0  0  0
 20 21  1  0  0  0  0
 20 22  1  0  0  0  0
 20 23  1  0  0  0  0
 24 25  1  0  0  0  0
 24 28  1  0  0  0  0
 26 27  1  0  0  0  0
 26 30  2  0  0  0  0
 28 29  1  0  0  0  0
 28 32  2  0  0  0  0
 30 31  1  0  0  0  0
 30 32  1  0  0  0  0
 32 33  1  0  0  0  0
M  END
>  <IDNUMBER>
AK-693/40760141

>  <NAME>
Cryptostrobin

>  <ADD_INFO>
http://www.specs.net/enter.php?specsid=AK-693/40760141

>  <H_ACCEPTORS>
1

>  <H_DONORS>
2

>  <ROTATABLE_BONDS>
1

>  <LOGP>
3.6400001

>  <LOGS>
-3.7

>  <TPSA>
66.760002

>  <PRICE>
N07

$$$$
AK-693/40760628
  MOE2011           3D

 31 33  0  0  0  0  0  0  0  0999 V2000
    0.6630    0.7960    0.2330 C   0  0  0  0  0  0  0  0  0  0  0  0
    0.5990   -0.6020    0.1460 C   0  0  0  0  0  0  0  0  0  0  0  0
   -0.5230    1.5550    0.2790 C   0  0  0  0  0  0  0  0  0  0  0  0
   -1.7650    0.8860    0.2830 C   0  0  0  0  0  0  0  0  0  0  0  0
    2.0010    1.4310    0.2680 C   0  0  0  0  0  0  0  0  0  0  0  0
   -0.6310   -1.2960    0.1080 C   0  0  0  0  0  0  0  0  0  0  0  0
   -1.7840   -0.5030    0.1910 C   0  0  0  0  0  0  0  0  0  0  0  0
    3.1640    0.5290    0.2430 C   0  0  0  0  0  0  0  0  0  0  0  0
    4.1450    0.9850    0.2900 H   0  0  0  0  0  0  0  0  0  0  0  0
    1.7330   -1.3890    0.0930 O   0  0  0  0  0  0  0  0  0  0  0  0
    2.9750   -0.7920    0.1590 C   0  0  0  0  0  0  0  0  0  0  0  0
   -3.0800   -0.9400    0.2050 O   0  0  0  0  0  0  0  0  0  0  0  0
   -3.1260    1.2940    0.3690 C   0  0  0  0  0  0  0  0  0  0  0  0
   -3.5020    2.3040    0.4600 H   0  0  0  0  0  0  0  0  0  0  0  0
   -3.8800    0.1490    0.3140 C   0  0  0  0  0  0  0  0  0  0  0  0
   -4.9420   -0.0520    0.3420 H   0  0  0  0  0  0  0  0  0  0  0  0
    2.1870    2.6400    0.3070 O   0  0  0  0  0  0  0  0  0  0  0  0
   -0.4970    2.9220    0.4150 O   0  0  0  0  0  0  0  0  0  0  0  0
   -0.5470   -2.6780    0.0180 O   0  0  0  0  0  0  0  0  0  0  0  0
    4.1110   -1.7670    0.1250 C   0  0  0  0  0  0  0  0  0  0  0  0
    4.0380   -2.4620    0.9670 H   0  0  0  0  0  0  0  0  0  0  0  0
    5.0840   -1.2680    0.1830 H   0  0  0  0  0  0  0  0  0  0  0  0
    4.0840   -2.3450   -0.8040 H   0  0  0  0  0  0  0  0  0  0  0  0
   -0.6050    3.5490   -0.8630 C   0  0  0  0  0  0  0  0  0  0  0  0
   -0.4540    4.6230   -0.7230 H   0  0  0  0  0  0  0  0  0  0  0  0
   -1.6040    3.4000   -1.2880 H   0  0  0  0  0  0  0  0  0  0  0  0
    0.1590    3.1870   -1.5600 H   0  0  0  0  0  0  0  0  0  0  0  0
   -1.7710   -3.3780   -0.1550 C   0  0  0  0  0  0  0  0  0  0  0  0
   -1.5310   -4.4360   -0.2950 H   0  0  0  0  0  0  0  0  0  0  0  0
   -2.3010   -3.0410   -1.0520 H   0  0  0  0  0  0  0  0  0  0  0  0
   -2.3980   -3.3000    0.7390 H   0  0  0  0  0  0  0  0  0  0  0  0
  1  2  1  0  0  0  0
  1  3  2  0  0  0  0
  1  5  1  0  0  0  0
  2  6  2  0  0  0  0
  2 10  1  0  0  0  0
  3  4  1  0  0  0  0
  3 18  1  0  0  0  0
  4  7  2  0  0  0  0
  4 13  1  0  0  0  0
  5  8  1  0  0  0  0
  5 17  2  0  0  0  0
  6  7  1  0  0  0  0
  6 19  1  0  0  0  0
  7 12  1  0  0  0  0
  8  9  1  0  0  0  0
  8 11  2  0  0  0  0
 10 11  1  0  0  0  0
 11 20  1  0  0  0  0
 12 15  1  0  0  0  0
 13 14  1  0  0  0  0
 13 15  2  0  0  0  0
 15 16  1  0  0  0  0
 18 24  1  0  0  0  0
 19 28  1  0  0  0  0
 20 21  1  0  0  0  0
 20 22  1  0  0  0  0
 20 23  1  0  0  0  0
 24 25  1  0  0  0  0
 24 26  1  0  0  0  0
 24 27  1  0  0  0  0
 28 29  1  0  0  0  0
 28 30  1  0  0  0  0
 28 31  1  0  0  0  0
M  END
>  <IDNUMBER>
AK-693/40760628

>  <NAME>
4,9-dimethoxy-7-methyl-5H-furo[3,2-g]chromen-5-one

>  <ADD_INFO>
http://www.specs.net/enter.php?specsid=AK-693/40760628

>  <H_ACCEPTORS>
1

>  <H_DONORS>
0

>  <ROTATABLE_BONDS>
2

>  <LOGP>
3

>  <LOGS>
-3.6600001

>  <TPSA>
57.900002

>  <PRICE>
N07

$$$$
AK-693/40881553
  MOE2011           3D

 31 32  0  0  0  0  0  0  0  0999 V2000
   -3.5070   -1.3790    0.2570 O   0  0  0  0  0  0  0  0  0  0  0  0
   -2.7540   -0.1910    0.1490 C   0  0  0  0  0  0  0  0  0  0  0  0
   -4.8900   -1.3700    0.1330 C   0  0  0  0  0  0  0  0  0  0  0  0
   -4.8270    1.0660   -0.2210 C   0  0  0  0  0  0  0  0  0  0  0  0
   -5.3170    2.0160   -0.4060 H   0  0  0  0  0  0  0  0  0  0  0  0
   -5.5300   -0.0650   -0.1170 C   0  0  0  0  0  0  0  0  0  0  0  0
   -6.6090   -0.0730   -0.2120 H   0  0  0  0  0  0  0  0  0  0  0  0
   -3.3810    1.0310   -0.0850 C   0  0  0  0  0  0  0  0  0  0  0  0
   -1.3690   -0.2990    0.2880 C   0  0  0  0  0  0  0  0  0  0  0  0
   -0.9420   -1.2790    0.4700 H   0  0  0  0  0  0  0  0  0  0  0  0
   -5.5630   -2.3900    0.2250 O   0  0  0  0  0  0  0  0  0  0  0  0
    3.9670   -0.5470   -0.0250 C   0  0  0  0  0  0  0  0  0  0  0  0
    2.9290    0.0050    0.6330 C   0  0  0  0  0  0  0  0  0  0  0  0
    3.1380    0.7980    1.3510 H   0  0  0  0  0  0  0  0  0  0  0  0
   -2.5960    2.1790   -0.1830 C   0  0  0  0  0  0  0  0  0  0  0  0
   -3.0480    3.1510   -0.3640 H   0  0  0  0  0  0  0  0  0  0  0  0
   -0.5860    0.8510    0.1880 C   0  0  0  0  0  0  0  0  0  0  0  0
   -1.2070    2.0850   -0.0460 C   0  0  0  0  0  0  0  0  0  0  0  0
   -0.5990    2.9840   -0.1240 H   0  0  0  0  0  0  0  0  0  0  0  0
    1.4690   -0.3210    0.5130 C   0  0  0  0  0  0  0  0  0  0  0  0
    1.1420   -0.7740    1.4570 H   0  0  0  0  0  0  0  0  0  0  0  0
    1.2660   -1.0020   -0.3170 H   0  0  0  0  0  0  0  0  0  0  0  0
    0.7760    0.9110    0.2990 O   0  0  0  0  0  0  0  0  0  0  0  0
    5.3720   -0.0620    0.2240 C   0  0  0  0  0  0  0  0  0  0  0  0
    5.8140    0.3100   -0.7070 H   0  0  0  0  0  0  0  0  0  0  0  0
    5.9940   -0.8790    0.6030 H   0  0  0  0  0  0  0  0  0  0  0  0
    5.4090    0.7510    0.9570 H   0  0  0  0  0  0  0  0  0  0  0  0
    3.8710   -1.6560   -1.0350 C   0  0  0  0  0  0  0  0  0  0  0  0
    4.5270   -2.4850   -0.7470 H   0  0  0  0  0  0  0  0  0  0  0  0
    4.1840   -1.2960   -2.0200 H   0  0  0  0  0  0  0  0  0  0  0  0
    2.8650   -2.0690   -1.1370 H   0  0  0  0  0  0  0  0  0  0  0  0
  1  2  1  0  0  0  0
  1  3  1  0  0  0  0
  2  8  2  0  0  0  0
  2  9  1  0  0  0  0
  3  6  1  0  0  0  0
  3 11  2  0  0  0  0
  4  5  1  0  0  0  0
  4  6  2  0  0  0  0
  4  8  1  0  0  0  0
  6  7  1  0  0  0  0
  8 15  1  0  0  0  0
  9 10  1  0  0  0  0
  9 17  2  0  0  0  0
 12 13  2  0  0  0  0
 12 24  1  0  0  0  0
 12 28  1  0  0  0  0
 13 14  1  0  0  0  0
 13 20  1  0  0  0  0
 15 16  1  0  0  0  0
 15 18  2  0  0  0  0
 17 18  1  0  0  0  0
 17 23  1  0  0  0  0
 18 19  1  0  0  0  0
 20 21  1  0  0  0  0
 20 22  1  0  0  0  0
 20 23  1  0  0  0  0
 24 25  1  0  0  0  0
 24 26  1  0  0  0  0
 24 27  1  0  0  0  0
 28 29  1  0  0  0  0
 28 30  1  0  0  0  0
 28 31  1  0  0  0  0
M  END
>  <IDNUMBER>
AK-693/40881553

>  <NAME>
7-[(3-methyl-2-butenyl)oxy]-2H-chromen-2-one

>  <ADD_INFO>
http://www.specs.net/enter.php?specsid=AK-693/40881553

>  <H_ACCEPTORS>
1

>  <H_DONORS>
0

>  <ROTATABLE_BONDS>
3

>  <LOGP>
3.4000001

>  <LOGS>
-3.78

>  <TPSA>
35.529999

>  <PRICE>
N07

$$$$
AK-693/40962719
  MOE2011           3D

 60 60  0  0  0  0  0  0  0  0999 V2000
   -5.7850    0.5200    0.3140 C   0  0  0  0  0  0  0  0  0  0  0  0
   -6.8120   -0.3410    1.0190 C   0  0  0  0  0  0  0  0  0  0  0  0
   -4.8720    0.0310   -0.6510 C   0  0  0  0  0  0  0  0  0  0  0  0
   -5.7510    1.8910    0.6490 C   0  0  0  0  0  0  0  0  0  0  0  0
   -6.4450    2.2600    1.4010 H   0  0  0  0  0  0  0  0  0  0  0  0
   -7.3810   -1.2570    0.3500 O   0  0  0  0  0  0  0  0  0  0  0  0
   -3.9840    0.9360   -1.2690 C   0  0  0  0  0  0  0  0  0  0  0  0
   -3.2780    0.5840   -2.0190 H   0  0  0  0  0  0  0  0  0  0  0  0
   -4.8540    2.7560    0.0300 C   0  0  0  0  0  0  0  0  0  0  0  0
   -7.0480   -0.0550    2.2360 O   0  5  0  0  0  0  0  0  0  0  0  0
   -3.9740    2.2880   -0.9320 C   0  0  0  0  0  0  0  0  0  0  0  0
   -3.2790    2.9680   -1.4130 H   0  0  0  0  0  0  0  0  0  0  0  0
   -4.8140    4.0830    0.3460 O   0  0  0  0  0  0  0  0  0  0  0  0
   -5.4710    4.2440    1.0440 H   0  0  0  0  0  0  0  0  0  0  0  0
   -4.7750   -1.4290   -1.0440 C   0  0  0  0  0  0  0  0  0  0  0  0
   -5.7590   -1.7790   -1.3740 H   0  0  0  0  0  0  0  0  0  0  0  0
   -4.1470   -1.5330   -1.9380 H   0  0  0  0  0  0  0  0  0  0  0  0
   -4.2340   -2.3560    0.0540 C   0  0  0  0  0  0  0  0  0  0  0  0
   -4.8900   -2.3240    0.9310 H   0  0  0  0  0  0  0  0  0  0  0  0
   -4.2770   -3.3880   -0.3170 H   0  0  0  0  0  0  0  0  0  0  0  0
    7.2040   -0.0360    1.3060 C   0  0  0  0  0  0  0  0  0  0  0  0
    6.8550   -0.8090    2.0010 H   0  0  0  0  0  0  0  0  0  0  0  0
    8.2880   -0.1720    1.2060 H   0  0  0  0  0  0  0  0  0  0  0  0
    6.5670   -0.2530   -0.0700 C   0  0  0  0  0  0  0  0  0  0  0  0
    6.8850   -1.2440   -0.4160 H   0  0  0  0  0  0  0  0  0  0  0  0
    6.9710    0.4670   -0.7910 H   0  0  0  0  0  0  0  0  0  0  0  0
   -0.3150   -2.2050   -0.0590 C   0  0  0  0  0  0  0  0  0  0  0  0
   -0.1720   -3.0760    0.5920 H   0  0  0  0  0  0  0  0  0  0  0  0
    0.3630   -2.3510   -0.9080 H   0  0  0  0  0  0  0  0  0  0  0  0
    0.1040   -0.9540    0.7200 C   0  0  0  0  0  0  0  0  0  0  0  0
   -0.4740   -0.8980    1.6510 H   0  0  0  0  0  0  0  0  0  0  0  0
    1.1480   -1.0760    1.0320 H   0  0  0  0  0  0  0  0  0  0  0  0
   -0.0510    0.3750   -0.0240 C   0  0  0  0  0  0  0  0  0  0  0  0
   -1.1140    0.5670   -0.2050 H   0  0  0  0  0  0  0  0  0  0  0  0
    0.2810    1.1830    0.6390 H   0  0  0  0  0  0  0  0  0  0  0  0
    0.6920    0.4790   -1.3590 C   0  0  0  0  0  0  0  0  0  0  0  0
    0.2560   -0.2270   -2.0760 H   0  0  0  0  0  0  0  0  0  0  0  0
    0.5100    1.4780   -1.7750 H   0  0  0  0  0  0  0  0  0  0  0  0
    2.2040    0.2380   -1.2980 C   0  0  0  0  0  0  0  0  0  0  0  0
    2.3980   -0.7930   -0.9850 H   0  0  0  0  0  0  0  0  0  0  0  0
    2.6030    0.3350   -2.3160 H   0  0  0  0  0  0  0  0  0  0  0  0
    2.9380    1.2170   -0.3780 C   0  0  0  0  0  0  0  0  0  0  0  0
    2.6320    2.2410   -0.6240 H   0  0  0  0  0  0  0  0  0  0  0  0
    2.6520    1.0420    0.6650 H   0  0  0  0  0  0  0  0  0  0  0  0
    4.4640    1.1340   -0.4980 C   0  0  0  0  0  0  0  0  0  0  0  0
    4.7610    1.3460   -1.5330 H   0  0  0  0  0  0  0  0  0  0  0  0
    4.8950    1.9310    0.1170 H   0  0  0  0  0  0  0  0  0  0  0  0
    5.0330   -0.2240   -0.0740 C   0  0  0  0  0  0  0  0  0  0  0  0
    4.6400   -0.5180    0.9060 H   0  0  0  0  0  0  0  0  0  0  0  0
    4.6900   -0.9800   -0.7900 H   0  0  0  0  0  0  0  0  0  0  0  0
   -2.8040   -2.0630    0.5240 C   0  0  0  0  0  0  0  0  0  0  0  0
   -2.7560   -1.0580    0.9560 H   0  0  0  0  0  0  0  0  0  0  0  0
   -2.5680   -2.7620    1.3360 H   0  0  0  0  0  0  0  0  0  0  0  0
   -1.7560   -2.2150   -0.5820 C   0  0  0  0  0  0  0  0  0  0  0  0
   -1.9180   -3.1670   -1.1020 H   0  0  0  0  0  0  0  0  0  0  0  0
   -1.8790   -1.4280   -1.3320 H   0  0  0  0  0  0  0  0  0  0  0  0
    6.9460    1.3330    1.9090 C   0  0  0  0  0  0  0  0  0  0  0  0
    5.8920    1.4590    2.1740 H   0  0  0  0  0  0  0  0  0  0  0  0
    7.2330    2.1300    1.2170 H   0  0  0  0  0  0  0  0  0  0  0  0
    7.5310    1.4550    2.8260 H   0  0  0  0  0  0  0  0  0  0  0  0
  1  2  1  0  0  0  0
  1  3  2  0  0  0  0
  1  4  1  0  0  0  0
  2  6  2  0  0  0  0
  2 10  1  0  0  0  0
  3  7  1  0  0  0  0
  3 15  1  0  0  0  0
  4  5  1  0  0  0  0
  4  9  2  0  0  0  0
  7  8  1  0  0  0  0
  7 11  2  0  0  0  0
  9 11  1  0  0  0  0
  9 13  1  0  0  0  0
 11 12  1  0  0  0  0
 13 14  1  0  0  0  0
 15 16  1  0  0  0  0
 15 17  1  0  0  0  0
 15 18  1  0  0  0  0
 18 19  1  0  0  0  0
 18 20  1  0  0  0  0
 18 51  1  0  0  0  0
 21 22  1  0  0  0  0
 21 23  1  0  0  0  0
 21 24  1  0  0  0  0
 21 57  1  0  0  0  0
 24 25  1  0  0  0  0
 24 26  1  0  0  0  0
 24 48  1  0  0  0  0
 27 28  1  0  0  0  0
 27 29  1  0  0  0  0
 27 30  1  0  0  0  0
 27 54  1  0  0  0  0
 30 31  1  0  0  0  0
 30 32  1  0  0  0  0
 30 33  1  0  0  0  0
 33 34  1  0  0  0  0
 33 35  1  0  0  0  0
 33 36  1  0  0  0  0
 36 37  1  0  0  0  0
 36 38  1  0  0  0  0
 36 39  1  0  0  0  0
 39 40  1  0  0  0  0
 39 41  1  0  0  0  0
 39 42  1  0  0  0  0
 42 43  1  0  0  0  0
 42 44  1  0  0  0  0
 42 45  1  0  0  0  0
 45 46  1  0  0  0  0
 45 47  1  0  0  0  0
 45 48  1  0  0  0  0
 48 49  1  0  0  0  0
 48 50  1  0  0  0  0
 51 52  1  0  0  0  0
 51 53  1  0  0  0  0
 51 54  1  0  0  0  0
 54 55  1  0  0  0  0
 54 56  1  0  0  0  0
 57 58  1  0  0  0  0
 57 59  1  0  0  0  0
 57 60  1  0  0  0  0
M  CHG  1  10  -1
M  END
>  <IDNUMBER>
AK-693/40962719

>  <NAME>
5-hydroxy-2-pentadecylbenzoic acid

>  <ADD_INFO>
http://www.specs.net/enter.php?specsid=AK-693/40962719

>  <H_ACCEPTORS>
2

>  <H_DONORS>
2

>  <ROTATABLE_BONDS>
15

>  <LOGP>
8.4700003

>  <LOGS>
-8.3999996

>  <TPSA>
57.529999

>  <PRICE>
N07

$$$$
AK-693/40962724
  MOE2011           3D

 53 55  0  0  0  0  0  0  0  0999 V2000
   -0.8640   -2.0060    1.1210 N   0  0  0  0  0  0  0  0  0  0  0  0
    0.4700   -2.1480    1.1310 N   0  0  0  0  0  0  0  0  0  0  0  0
    0.8540   -2.9760    1.5730 H   0  0  0  0  0  0  0  0  0  0  0  0
    1.1480   -1.1250    0.5260 C   0  0  0  0  0  0  0  0  0  0  0  0
    0.1660   -0.2580    0.0950 C   0  0  0  0  0  0  0  0  0  0  0  0
    0.3120    0.6750   -0.4310 H   0  0  0  0  0  0  0  0  0  0  0  0
   -1.0660   -0.8430    0.4880 C   0  0  0  0  0  0  0  0  0  0  0  0
    2.5610   -1.1780    0.4830 C   0  0  0  0  0  0  0  0  0  0  0  0
    3.0680   -2.0250    0.9410 H   0  0  0  0  0  0  0  0  0  0  0  0
   -2.3470   -0.2500    0.2380 C   0  0  0  0  0  0  0  0  0  0  0  0
   -2.3390    0.6990   -0.2930 H   0  0  0  0  0  0  0  0  0  0  0  0
   -7.1790   -0.4300   -0.2820 C   0  0  0  0  0  0  0  0  0  0  0  0
    6.8440    1.0320   -0.0120 C   0  0  0  0  0  0  0  0  0  0  0  0
    3.2800   -0.2010   -0.0930 C   0  0  0  0  0  0  0  0  0  0  0  0
    2.8010    0.6700   -0.5320 H   0  0  0  0  0  0  0  0  0  0  0  0
   -3.5270   -0.7860    0.5980 C   0  0  0  0  0  0  0  0  0  0  0  0
   -3.5520   -1.7490    1.1040 H   0  0  0  0  0  0  0  0  0  0  0  0
   -7.3800    0.9570   -0.1310 C   0  0  0  0  0  0  0  0  0  0  0  0
    7.5630   -0.1500   -0.2850 C   0  0  0  0  0  0  0  0  0  0  0  0
   -5.9110   -0.9790   -0.0430 C   0  0  0  0  0  0  0  0  0  0  0  0
   -5.7350   -2.0450   -0.1520 H   0  0  0  0  0  0  0  0  0  0  0  0
    5.4440    0.9930    0.0500 C   0  0  0  0  0  0  0  0  0  0  0  0
    4.8710    1.8900    0.2650 H   0  0  0  0  0  0  0  0  0  0  0  0
    4.7500   -0.2090   -0.1490 C   0  0  0  0  0  0  0  0  0  0  0  0
   -4.8330   -0.1640    0.3310 C   0  0  0  0  0  0  0  0  0  0  0  0
    6.8690   -1.3430   -0.5030 C   0  0  0  0  0  0  0  0  0  0  0  0
    7.3820   -2.2720   -0.7280 H   0  0  0  0  0  0  0  0  0  0  0  0
   -6.3090    1.7660    0.2590 C   0  0  0  0  0  0  0  0  0  0  0  0
   -6.4200    2.8370    0.3960 H   0  0  0  0  0  0  0  0  0  0  0  0
    5.4730   -1.3690   -0.4420 C   0  0  0  0  0  0  0  0  0  0  0  0
    4.9610   -2.3090   -0.6350 H   0  0  0  0  0  0  0  0  0  0  0  0
   -5.0480    1.2090    0.4920 C   0  0  0  0  0  0  0  0  0  0  0  0
   -4.2410    1.8630    0.8140 H   0  0  0  0  0  0  0  0  0  0  0  0
   -8.2800   -1.1600   -0.6610 O   0  0  0  0  0  0  0  0  0  0  0  0
    7.5980    2.1630    0.1810 O   0  0  0  0  0  0  0  0  0  0  0  0
   -8.6510    1.4170   -0.3820 O   0  0  0  0  0  0  0  0  0  0  0  0
    8.9300   -0.0310   -0.3210 O   0  0  0  0  0  0  0  0  0  0  0  0
   -8.1210   -2.5610   -0.8330 C   0  0  0  0  0  0  0  0  0  0  0  0
   -9.0880   -2.9720   -1.1370 H   0  0  0  0  0  0  0  0  0  0  0  0
   -7.8360   -3.0440    0.1070 H   0  0  0  0  0  0  0  0  0  0  0  0
   -7.4010   -2.7820   -1.6280 H   0  0  0  0  0  0  0  0  0  0  0  0
    6.9120    3.3880    0.4020 C   0  0  0  0  0  0  0  0  0  0  0  0
    7.6620    4.1780    0.5060 H   0  0  0  0  0  0  0  0  0  0  0  0
    6.3360    3.3540    1.3330 H   0  0  0  0  0  0  0  0  0  0  0  0
    6.2750    3.6440   -0.4510 H   0  0  0  0  0  0  0  0  0  0  0  0
   -8.8910    2.8070   -0.2150 C   0  0  0  0  0  0  0  0  0  0  0  0
   -9.9430    2.9950   -0.4510 H   0  0  0  0  0  0  0  0  0  0  0  0
   -8.2850    3.4000   -0.9080 H   0  0  0  0  0  0  0  0  0  0  0  0
   -8.7240    3.1150    0.8230 H   0  0  0  0  0  0  0  0  0  0  0  0
    9.6900   -1.2020   -0.5880 C   0  0  0  0  0  0  0  0  0  0  0  0
   10.7490   -0.9250   -0.5710 H   0  0  0  0  0  0  0  0  0  0  0  0
    9.4670   -1.5980   -1.5840 H   0  0  0  0  0  0  0  0  0  0  0  0
    9.5320   -1.9610    0.1850 H   0  0  0  0  0  0  0  0  0  0  0  0
  1  2  1  0  0  0  0
  1  7  2  0  0  0  0
  2  3  1  0  0  0  0
  2  4  1  0  0  0  0
  4  5  2  0  0  0  0
  4  8  1  0  0  0  0
  5  6  1  0  0  0  0
  5  7  1  0  0  0  0
  7 10  1  0  0  0  0
  8  9  1  0  0  0  0
  8 14  2  0  0  0  0
 10 11  1  0  0  0  0
 10 16  2  0  0  0  0
 12 18  2  0  0  0  0
 12 20  1  0  0  0  0
 12 34  1  0  0  0  0
 13 19  2  0  0  0  0
 13 22  1  0  0  0  0
 13 35  1  0  0  0  0
 14 15  1  0  0  0  0
 14 24  1  0  0  0  0
 16 17  1  0  0  0  0
 16 25  1  0  0  0  0
 18 28  1  0  0  0  0
 18 36  1  0  0  0  0
 19 26  1  0  0  0  0
 19 37  1  0  0  0  0
 20 21  1  0  0  0  0
 20 25  2  0  0  0  0
 22 23  1  0  0  0  0
 22 24  2  0  0  0  0
 24 30  1  0  0  0  0
 25 32  1  0  0  0  0
 26 27  1  0  0  0  0
 26 30  2  0  0  0  0
 28 29  1  0  0  0  0
 28 32  2  0  0  0  0
 30 31  1  0  0  0  0
 32 33  1  0  0  0  0
 34 38  1  0  0  0  0
 35 42  1  0  0  0  0
 36 46  1  0  0  0  0
 37 50  1  0  0  0  0
 38 39  1  0  0  0  0
 38 40  1  0  0  0  0
 38 41  1  0  0  0  0
 42 43  1  0  0  0  0
 42 44  1  0  0  0  0
 42 45  1  0  0  0  0
 46 47  1  0  0  0  0
 46 48  1  0  0  0  0
 46 49  1  0  0  0  0
 50 51  1  0  0  0  0
 50 52  1  0  0  0  0
 50 53  1  0  0  0  0
M  END
>  <IDNUMBER>
AK-693/40962724

>  <NAME>
3,5-bis[2-(3,4-dimethoxyphenyl)vinyl]-1H-pyrazole

>  <ADD_INFO>
http://www.specs.net/enter.php?specsid=AK-693/40962724

>  <H_ACCEPTORS>
2

>  <H_DONORS>
1

>  <ROTATABLE_BONDS>
8

>  <LOGP>
4.4099998

>  <LOGS>
-5.8299999

>  <TPSA>
65.599998

>  <PRICE>
N07

$$$$
AK-693/40962727
  MOE2011           3D

 60 61  0  0  1  0  0  0  0  0999 V2000
   -3.4400    0.4730   -0.5060 C   0  0  0  0  0  0  0  0  0  0  0  0
   -1.3510    1.9660   -0.5570 C   0  0  0  0  0  0  0  0  0  0  0  0
   -1.9770    0.6430   -0.2800 C   0  0  0  0  0  0  0  0  0  0  0  0
   -2.0270    3.0210   -1.0700 C   0  0  0  0  0  0  0  0  0  0  0  0
   -4.1110    1.4940   -1.0390 C   0  0  0  0  0  0  0  0  0  0  0  0
   -5.1660    1.4130   -1.2740 H   0  0  0  0  0  0  0  0  0  0  0  0
   -3.5090    2.8010   -1.3640 C   0  0  0  0  0  0  0  0  0  0  0  0
   -3.9230   -0.7820   -0.1830 N   0  0  0  0  0  0  0  0  0  0  0  0
   -3.1890   -1.4610    0.0180 H   0  0  0  0  0  0  0  0  0  0  0  0
   -5.2450   -1.2440   -0.0990 C   0  0  0  0  0  0  0  0  0  0  0  0
   -1.3240   -0.3170    0.1340 O   0  0  0  0  0  0  0  0  0  0  0  0
   -4.2580    3.6470   -1.8550 O   0  0  0  0  0  0  0  0  0  0  0  0
   -6.2480   -0.6250    0.6760 C   0  0  0  0  0  0  0  0  0  0  0  0
   -1.5930    4.1790   -1.3410 O   0  5  0  0  0  0  0  0  0  0  0  0
    0.1350    2.0240   -0.2400 C   0  0  0  0  0  0  0  0  0  0  0  0
    0.6080    1.0880   -0.5570 H   0  0  0  0  0  0  0  0  0  0  0  0
    0.6360    2.8010   -0.8320 H   0  0  0  0  0  0  0  0  0  0  0  0
   -5.5750   -2.3990   -0.8300 C   0  0  0  0  0  0  0  0  0  0  0  0
   -4.8120   -2.8970   -1.4250 H   0  0  0  0  0  0  0  0  0  0  0  0
   -5.9820    0.5610    1.5640 C   0  0  0  0  0  0  0  0  0  0  0  0
   -6.6400    0.5410    2.4390 H   0  0  0  0  0  0  0  0  0  0  0  0
   -6.1630    1.4930    1.0220 H   0  0  0  0  0  0  0  0  0  0  0  0
   -4.9590    0.5530    1.9510 H   0  0  0  0  0  0  0  0  0  0  0  0
   -7.5590   -1.1370    0.6420 C   0  0  0  0  0  0  0  0  0  0  0  0
   -8.3450   -0.6560    1.2180 H   0  0  0  0  0  0  0  0  0  0  0  0
    0.3880    2.2920    1.2500 C   0  0  0  0  0  0  0  0  0  0  0  0
   -0.0030    3.2870    1.5000 H   0  0  0  0  0  0  0  0  0  0  0  0
   -0.1620    1.5770    1.8730 H   0  0  0  0  0  0  0  0  0  0  0  0
    5.4680   -1.4440   -2.7460 C   0  0  0  0  0  0  0  0  0  0  0  0
    5.2440   -2.1720   -3.5350 H   0  0  0  0  0  0  0  0  0  0  0  0
    4.9540   -0.5150   -3.0180 H   0  0  0  0  0  0  0  0  0  0  0  0
    4.9150   -1.9780   -1.4230 C   0  0  0  0  0  0  0  0  0  0  0  0
    5.4290   -2.9100   -1.1580 H   0  0  0  0  0  0  0  0  0  0  0  0
    3.8580   -2.2310   -1.5720 H   0  0  0  0  0  0  0  0  0  0  0  0
    3.9180    0.8230    2.0320 C   0  0  0  0  0  0  0  0  0  0  0  0
    4.4990    1.3770    1.2850 H   0  0  0  0  0  0  0  0  0  0  0  0
    4.0470    1.3600    2.9810 H   0  0  0  0  0  0  0  0  0  0  0  0
    4.4970   -0.5860    2.2040 C   0  0  0  0  0  0  0  0  0  0  0  0
    5.5580   -0.4940    2.4660 H   0  0  0  0  0  0  0  0  0  0  0  0
    4.0090   -1.0650    3.0620 H   0  0  0  0  0  0  0  0  0  0  0  0
    4.3620   -1.5170    0.9950 C   0  0  0  0  0  0  0  0  0  0  0  0
    4.8160   -2.4810    1.2560 H   0  0  0  0  0  0  0  0  0  0  0  0
    3.3030   -1.7230    0.7980 H   0  0  0  0  0  0  0  0  0  0  0  0
    5.0310   -0.9770   -0.2710 C   0  0  0  0  0  0  0  0  0  0  0  0
    4.5640   -0.0330   -0.5720 H   0  0  0  0  0  0  0  0  0  0  0  0
    6.0850   -0.7680   -0.0570 H   0  0  0  0  0  0  0  0  0  0  0  0
    1.8740    2.2540    1.6200 C   0  0  0  0  0  0  0  0  0  0  0  0
    2.4490    2.8780    0.9250 H   0  0  0  0  0  0  0  0  0  0  0  0
    1.9930    2.6970    2.6170 H   0  0  0  0  0  0  0  0  0  0  0  0
    2.4380    0.8300    1.6440 C   0  0  0  0  0  0  0  0  0  0  0  0
    1.8680    0.2240    2.3580 H   0  0  0  0  0  0  0  0  0  0  0  0
    2.3180    0.3710    0.6590 H   0  0  0  0  0  0  0  0  0  0  0  0
   -6.8740   -2.9100   -0.8370 C   0  0  0  0  0  0  0  0  0  0  0  0
   -7.1070   -3.7970   -1.4200 H   0  0  0  0  0  0  0  0  0  0  0  0
    6.9700   -1.2030   -2.7230 C   0  0  0  0  0  0  0  0  0  0  0  0
    7.5080   -2.1070   -2.4220 H   0  0  0  0  0  0  0  0  0  0  0  0
    7.2360   -0.3950   -2.0360 H   0  0  0  0  0  0  0  0  0  0  0  0
    7.3190   -0.9160   -3.7210 H   0  0  0  0  0  0  0  0  0  0  0  0
   -7.8690   -2.2720   -0.1070 C   0  0  0  0  0  0  0  0  0  0  0  0
   -8.8850   -2.6580   -0.1150 H   0  0  0  0  0  0  0  0  0  0  0  0
  1  3  1  0  0  0  0
  1  5  2  0  0  0  0
  1  8  1  0  0  0  0
  2  3  1  0  0  0  0
  2  4  2  0  0  0  0
  2 15  1  0  0  0  0
  3 11  2  0  0  0  0
  4  7  1  0  0  0  0
  4 14  1  0  0  0  0
  5  6  1  0  0  0  0
  5  7  1  0  0  0  0
  7 12  2  0  0  0  0
  8  9  1  0  0  0  0
  8 10  1  0  0  0  0
 10 13  2  0  0  0  0
 10 18  1  0  0  0  0
 13 20  1  0  0  0  0
 13 24  1  0  0  0  0
 15 16  1  0  0  0  0
 15 17  1  0  0  0  0
 15 26  1  0  0  0  0
 18 19  1  0  0  0  0
 18 53  2  0  0  0  0
 20 21  1  0  0  0  0
 20 22  1  0  0  0  0
 20 23  1  0  0  0  0
 24 25  1  0  0  0  0
 24 59  2  0  0  0  0
 26 27  1  0  0  0  0
 26 28  1  0  0  0  0
 26 47  1  0  0  0  0
 29 30  1  0  0  0  0
 29 31  1  0  0  0  0
 29 32  1  0  0  0  0
 29 55  1  0  0  0  0
 32 33  1  0  0  0  0
 32 34  1  0  0  0  0
 32 44  1  0  0  0  0
 35 36  1  0  0  0  0
 35 37  1  0  0  0  0
 35 38  1  0  0  0  0
 35 50  1  0  0  0  0
 38 39  1  0  0  0  0
 38 40  1  0  0  0  0
 38 41  1  0  0  0  0
 41 42  1  0  0  0  0
 41 43  1  0  0  0  0
 41 44  1  0  0  0  0
 44 45  1  0  0  0  0
 44 46  1  0  0  0  0
 47 48  1  0  0  0  0
 47 49  1  0  0  0  0
 47 50  1  0  0  0  0
 50 51  1  0  0  0  0
 50 52  1  0  0  0  0
 53 54  1  0  0  0  0
 53 59  1  0  0  0  0
 55 56  1  0  0  0  0
 55 57  1  0  0  0  0
 55 58  1  0  0  0  0
 59 60  1  0  0  0  0
M  CHG  1  14  -1
M  END
>  <IDNUMBER>
AK-693/40962727

>  <NAME>
2-hydroxy-5-(2-toluidino)-3-undecylbenzo-1,4-quinone

>  <ADD_INFO>
http://www.specs.net/enter.php?specsid=AK-693/40962727

>  <H_ACCEPTORS>
4

>  <H_DONORS>
2

>  <ROTATABLE_BONDS>
12

>  <LOGP>
6.98

>  <LOGS>
-7.9499998

>  <TPSA>
66.400002

>  <PRICE>
N07

$$$$
AK-693/40962729
  MOE2011           3D

 53 59  0  0  1  0  0  0  0  0999 V2000
    0.6240    0.6980    0.3630 C   0  0  3  0  0  0  0  0  0  0  0  0
   -0.0780   -0.5670   -0.2300 C   0  0  1  0  0  0  0  0  0  0  0  0
   -0.1240    1.8180   -0.4140 C   0  0  1  0  0  0  0  0  0  0  0  0
    2.0700    0.4370    0.1110 N   0  0  0  0  0  0  0  0  0  0  0  0
   -0.3260   -0.2800   -1.7360 C   0  0  2  0  0  0  0  0  0  0  0  0
   -0.1560    1.2150   -1.8100 C   0  0  0  0  0  0  0  0  0  0  0  0
    2.2450   -0.9710    0.0250 C   0  0  0  0  0  0  0  0  0  0  0  0
    0.9920   -1.6030   -0.0750 C   0  0  0  0  0  0  0  0  0  0  0  0
   -2.2990   -1.2470   -0.7540 N   0  3  3  0  0  0  0  0  0  0  0  0
   -2.0950   -2.2550   -0.8330 H   0  0  0  0  0  0  0  0  0  0  0  0
   -1.4550   -0.7510    0.3850 C   0  0  2  0  0  0  0  0  0  0  0  0
   -1.9470    0.6070    0.9580 C   0  0  3  0  0  0  0  0  0  0  0  0
   -1.6090    1.8370    0.0530 C   0  0  0  0  0  0  0  0  0  0  0  0
   -1.8110    2.7600    0.6170 H   0  0  0  0  0  0  0  0  0  0  0  0
   -2.2790    1.8950   -0.8110 H   0  0  0  0  0  0  0  0  0  0  0  0
    3.0300    1.4300    0.0490 C   0  0  0  0  0  0  0  0  0  0  0  0
   -1.7680   -0.6610   -2.0420 C   0  0  0  0  0  0  0  0  0  0  0  0
   -1.8330   -1.4520   -2.7960 H   0  0  0  0  0  0  0  0  0  0  0  0
   -2.4060    0.1770   -2.3370 H   0  0  0  0  0  0  0  0  0  0  0  0
    0.3810    0.8540    1.8900 C   0  0  0  0  0  0  0  0  0  0  0  0
    0.8840    0.0520    2.4460 H   0  0  0  0  0  0  0  0  0  0  0  0
    0.8300    1.7890    2.2480 H   0  0  0  0  0  0  0  0  0  0  0  0
   -1.1150    0.8330    2.2410 C   0  0  0  0  0  0  0  0  0  0  0  0
   -1.3950    1.7750    2.7290 H   0  0  0  0  0  0  0  0  0  0  0  0
   -1.3080    0.0410    2.9760 H   0  0  0  0  0  0  0  0  0  0  0  0
   -0.1280    1.8350   -2.8630 O   0  0  0  0  0  0  0  0  0  0  0  0
    2.7380    2.6220    0.1450 O   0  0  0  0  0  0  0  0  0  0  0  0
    0.3720    3.1190   -0.2740 O   0  0  0  0  0  0  0  0  0  0  0  0
    1.3570    3.0950   -0.2110 H   0  0  0  0  0  0  0  0  0  0  0  0
   -3.7840   -1.2080   -0.5360 C   0  0  0  0  0  0  0  0  0  0  0  0
   -4.2680   -1.4410   -1.4900 H   0  0  0  0  0  0  0  0  0  0  0  0
   -4.0080   -2.0160    0.1690 H   0  0  0  0  0  0  0  0  0  0  0  0
    4.2970    0.9870   -0.1650 O   0  0  0  0  0  0  0  0  0  0  0  0
   -3.4490    0.5460    1.2590 C   0  0  0  0  0  0  0  0  0  0  0  0
   -3.6370   -0.1720    2.0680 H   0  0  0  0  0  0  0  0  0  0  0  0
   -3.8100    1.5190    1.6150 H   0  0  0  0  0  0  0  0  0  0  0  0
    3.4060   -1.7230    0.0600 C   0  0  0  0  0  0  0  0  0  0  0  0
    4.3900   -1.2800    0.1500 H   0  0  0  0  0  0  0  0  0  0  0  0
    0.8810   -2.9850   -0.1200 C   0  0  0  0  0  0  0  0  0  0  0  0
   -0.0750   -3.4880   -0.2080 H   0  0  0  0  0  0  0  0  0  0  0  0
   -4.2520    0.1240    0.0290 C   0  0  0  0  0  0  0  0  0  0  0  0
   -4.2040    0.8960   -0.7460 H   0  0  0  0  0  0  0  0  0  0  0  0
   -5.3100    0.0410    0.3050 H   0  0  0  0  0  0  0  0  0  0  0  0
    5.2900    2.0120   -0.2480 C   0  0  0  0  0  0  0  0  0  0  0  0
    6.2630    1.5310   -0.3830 H   0  0  0  0  0  0  0  0  0  0  0  0
    5.3180    2.5960    0.6780 H   0  0  0  0  0  0  0  0  0  0  0  0
    5.0990    2.6590   -1.1100 H   0  0  0  0  0  0  0  0  0  0  0  0
    3.3020   -3.1170    0.0140 C   0  0  0  0  0  0  0  0  0  0  0  0
    4.2050   -3.7240    0.0500 H   0  0  0  0  0  0  0  0  0  0  0  0
    2.0510   -3.7420   -0.0690 C   0  0  0  0  0  0  0  0  0  0  0  0
    1.9970   -4.8280   -0.1040 H   0  0  0  0  0  0  0  0  0  0  0  0
   -1.4820   -1.5360    1.1520 H   0  0  0  0  0  0  0  0  0  0  0  0
    0.3900   -0.7520   -2.4170 H   0  0  0  0  0  0  0  0  0  0  0  0
  1  2  1  0  0  0  0
  1  3  1  0  0  0  0
  1  4  1  0  0  0  0
  1 20  1  0  0  0  0
  2  5  1  0  0  0  0
  2  8  1  0  0  0  0
  2 11  1  0  0  0  0
  3  6  1  0  0  0  0
  3 13  1  0  0  0  0
  3 28  1  0  0  0  0
  4  7  1  0  0  0  0
  4 16  1  0  0  0  0
  5  6  1  0  0  0  0
  5 17  1  0  0  0  0
  5 53  1  0  0  0  0
  6 26  2  0  0  0  0
  7  8  2  0  0  0  0
  7 37  1  0  0  0  0
  8 39  1  0  0  0  0
  9 10  1  0  0  0  0
  9 11  1  0  0  0  0
  9 17  1  0  0  0  0
  9 30  1  0  0  0  0
 11 12  1  0  0  0  0
 11 52  1  0  0  0  0
 12 13  1  0  0  0  0
 12 23  1  0  0  0  0
 12 34  1  0  0  0  0
 13 14  1  0  0  0  0
 13 15  1  0  0  0  0
 16 27  2  0  0  0  0
 16 33  1  0  0  0  0
 17 18  1  0  0  0  0
 17 19  1  0  0  0  0
 20 21  1  0  0  0  0
 20 22  1  0  0  0  0
 20 23  1  0  0  0  0
 23 24  1  0  0  0  0
 23 25  1  0  0  0  0
 28 29  1  0  0  0  0
 30 31  1  0  0  0  0
 30 32  1  0  0  0  0
 30 41  1  0  0  0  0
 33 44  1  0  0  0  0
 34 35  1  0  0  0  0
 34 36  1  0  0  0  0
 34 41  1  0  0  0  0
 37 38  1  0  0  0  0
 37 48  2  0  0  0  0
 39 40  1  0  0  0  0
 39 50  2  0  0  0  0
 41 42  1  0  0  0  0
 41 43  1  0  0  0  0
 44 45  1  0  0  0  0
 44 46  1  0  0  0  0
 44 47  1  0  0  0  0
 48 49  1  0  0  0  0
 48 50  1  0  0  0  0
 50 51  1  0  0  0  0
M  CHG  1   9   1
M  END
>  <IDNUMBER>
AK-693/40962729

>  <NAME>
Kopsine

>  <ADD_INFO>
http://www.specs.net/enter.php?specsid=AK-693/40962729

>  <H_ACCEPTORS>
6

>  <H_DONORS>
1

>  <ROTATABLE_BONDS>
2

>  <LOGP>
2.6400001

>  <LOGS>
-3.22

>  <TPSA>
70.080002

>  <PRICE>
N07

$$$$
AK-693/40962731
  MOE2011           3D

 46 50  0  0  1  0  0  0  0  0999 V2000
   -0.6270    1.7630    0.0970 N   0  0  0  0  0  0  0  0  0  0  0  0
   -3.0210    1.3900    0.1110 C   0  0  0  0  0  0  0  0  0  0  0  0
   -0.4240    0.3970    0.1710 C   0  0  0  0  0  0  0  0  0  0  0  0
   -2.8050    0.0620    0.1810 C   0  0  0  0  0  0  0  0  0  0  0  0
   -1.8700    2.3520    0.0600 C   0  0  0  0  0  0  0  0  0  0  0  0
    1.0110    0.1480    0.1900 C   0  0  0  0  0  0  0  0  0  0  0  0
   -1.4470   -0.4590    0.2100 C   0  0  0  0  0  0  0  0  0  0  0  0
   -1.2830   -1.5310    0.2680 H   0  0  0  0  0  0  0  0  0  0  0  0
    1.6540    1.3750    0.1230 C   0  0  0  0  0  0  0  0  0  0  0  0
    1.6040   -1.0490    0.2580 N   0  0  0  0  0  0  0  0  0  0  0  0
   -3.9710   -0.8920    0.1830 C   0  0  2  0  0  0  0  0  0  0  0  0
    0.6540    2.4880    0.0610 C   0  0  0  0  0  0  0  0  0  0  0  0
    0.7150    3.0580   -0.8700 H   0  0  0  0  0  0  0  0  0  0  0  0
    0.7110    3.1540    0.9280 H   0  0  0  0  0  0  0  0  0  0  0  0
   -5.1950   -0.2250    0.8290 C   0  0  0  0  0  0  0  0  0  0  0  0
    3.7260    0.1630    0.1910 C   0  0  0  0  0  0  0  0  0  0  0  0
    3.0310    1.3930    0.1220 C   0  0  0  0  0  0  0  0  0  0  0  0
    3.5680    2.3360    0.0680 H   0  0  0  0  0  0  0  0  0  0  0  0
   -4.3920    1.9680    0.0690 C   0  0  0  0  0  0  0  0  0  0  0  0
   -4.6650    2.2440   -0.9550 H   0  0  0  0  0  0  0  0  0  0  0  0
   -4.4490    2.8700    0.6870 H   0  0  0  0  0  0  0  0  0  0  0  0
    2.9500   -1.0320    0.2590 C   0  0  0  0  0  0  0  0  0  0  0  0
   -5.4160    1.0840    0.5770 O   0  0  0  0  0  0  0  0  0  0  0  0
   -2.0610    3.5620   -0.0170 O   0  0  0  0  0  0  0  0  0  0  0  0
    5.1440    0.0790    0.1920 C   0  0  0  0  0  0  0  0  0  0  0  0
   -5.9700   -0.8860    1.5220 O   0  0  0  0  0  0  0  0  0  0  0  0
   -3.6430   -2.0360    0.9830 O   0  0  0  0  0  0  0  0  0  0  0  0
   -4.4820   -2.3500    1.3790 H   0  0  0  0  0  0  0  0  0  0  0  0
   -4.3030   -1.3570   -1.2500 C   0  0  0  0  0  0  0  0  0  0  0  0
   -4.6120   -0.5020   -1.8660 H   0  0  0  0  0  0  0  0  0  0  0  0
   -3.4020   -1.7770   -1.7160 H   0  0  0  0  0  0  0  0  0  0  0  0
    5.8210    1.2740    0.1200 O   0  0  0  0  0  0  0  0  0  0  0  0
    3.6090   -2.2480    0.3310 C   0  0  0  0  0  0  0  0  0  0  0  0
    3.0250   -3.1640    0.3860 H   0  0  0  0  0  0  0  0  0  0  0  0
    5.0010   -2.3290    0.3370 C   0  0  0  0  0  0  0  0  0  0  0  0
    5.4850   -3.3000    0.3950 H   0  0  0  0  0  0  0  0  0  0  0  0
    5.7680   -1.1690    0.2670 C   0  0  0  0  0  0  0  0  0  0  0  0
    6.8480   -1.2760    0.2730 H   0  0  0  0  0  0  0  0  0  0  0  0
    7.2420    1.2260    0.0770 C   0  0  0  0  0  0  0  0  0  0  0  0
    7.6090    2.2540    0.0030 H   0  0  0  0  0  0  0  0  0  0  0  0
    7.5920    0.6840   -0.8080 H   0  0  0  0  0  0  0  0  0  0  0  0
    7.6500    0.7930    0.9960 H   0  0  0  0  0  0  0  0  0  0  0  0
   -5.3870   -2.4270   -1.3320 C   0  0  0  0  0  0  0  0  0  0  0  0
   -6.3430   -2.0620   -0.9450 H   0  0  0  0  0  0  0  0  0  0  0  0
   -5.1060   -3.3250   -0.7730 H   0  0  0  0  0  0  0  0  0  0  0  0
   -5.5430   -2.7200   -2.3750 H   0  0  0  0  0  0  0  0  0  0  0  0
  1  3  1  0  0  0  0
  1  5  1  0  0  0  0
  1 12  1  0  0  0  0
  2  4  2  0  0  0  0
  2  5  1  0  0  0  0
  2 19  1  0  0  0  0
  3  6  1  0  0  0  0
  3  7  2  0  0  0  0
  4  7  1  0  0  0  0
  4 11  1  0  0  0  0
  5 24  2  0  0  0  0
  6  9  1  0  0  0  0
  6 10  2  0  0  0  0
  7  8  1  0  0  0  0
  9 12  1  0  0  0  0
  9 17  2  0  0  0  0
 10 22  1  0  0  0  0
 11 15  1  0  0  0  0
 11 27  1  0  0  0  0
 11 29  1  0  0  0  0
 12 13  1  0  0  0  0
 12 14  1  0  0  0  0
 15 23  1  0  0  0  0
 15 26  2  0  0  0  0
 16 17  1  0  0  0  0
 16 22  2  0  0  0  0
 16 25  1  0  0  0  0
 17 18  1  0  0  0  0
 19 20  1  0  0  0  0
 19 21  1  0  0  0  0
 19 23  1  0  0  0  0
 22 33  1  0  0  0  0
 25 32  1  0  0  0  0
 25 37  2  0  0  0  0
 27 28  1  0  0  0  0
 29 30  1  0  0  0  0
 29 31  1  0  0  0  0
 29 43  1  0  0  0  0
 32 39  1  0  0  0  0
 33 34  1  0  0  0  0
 33 35  2  0  0  0  0
 35 36  1  0  0  0  0
 35 37  1  0  0  0  0
 37 38  1  0  0  0  0
 39 40  1  0  0  0  0
 39 41  1  0  0  0  0
 39 42  1  0  0  0  0
 43 44  1  0  0  0  0
 43 45  1  0  0  0  0
 43 46  1  0  0  0  0
M  END
>  <IDNUMBER>
AK-693/40962731

>  <NAME>
9-Methoxycamptothecin

>  <ADD_INFO>
http://www.specs.net/enter.php?specsid=AK-693/40962731

>  <H_ACCEPTORS>
6

>  <H_DONORS>
1

>  <ROTATABLE_BONDS>
2

>  <LOGP>
1.8099999

>  <LOGS>
-3.51

>  <TPSA>
88.959999

>  <PRICE>
N07

$$$$
AK-693/40962732
  MOE2011           3D

 29 31  0  0  1  0  0  0  0  0999 V2000
    1.0120    0.9300   -0.0560 C   0  0  0  0  0  0  0  0  0  0  0  0
   -0.2610    1.6720   -0.1050 C   0  0  0  0  0  0  0  0  0  0  0  0
    0.9840   -0.4760   -0.0510 C   0  0  0  0  0  0  0  0  0  0  0  0
   -0.2570   -1.1470   -0.1370 N   0  0  0  0  0  0  0  0  0  0  0  0
   -1.5320    0.9300   -0.0270 C   0  0  0  0  0  0  0  0  0  0  0  0
   -1.4980   -0.4780   -0.0250 C   0  0  0  0  0  0  0  0  0  0  0  0
    2.2190    1.6460   -0.0010 C   0  0  0  0  0  0  0  0  0  0  0  0
    2.2240   -1.1280    0.0570 C   0  0  0  0  0  0  0  0  0  0  0  0
    2.2960   -2.2100    0.1130 H   0  0  0  0  0  0  0  0  0  0  0  0
    3.4320    0.9800    0.0840 C   0  0  0  0  0  0  0  0  0  0  0  0
    4.3540    1.5490    0.1300 H   0  0  0  0  0  0  0  0  0  0  0  0
   -0.2220    2.8990   -0.1780 O   0  0  0  0  0  0  0  0  0  0  0  0
    3.4220   -0.4070    0.1200 C   0  0  0  0  0  0  0  0  0  0  0  0
    2.2500    3.0170   -0.0220 O   0  0  0  0  0  0  0  0  0  0  0  0
    1.3090    3.3210   -0.0960 H   0  0  0  0  0  0  0  0  0  0  0  0
   -0.2570   -2.5980   -0.3440 C   0  0  0  0  0  0  0  0  0  0  0  0
   -1.1220   -2.9370   -0.9260 H   0  0  0  0  0  0  0  0  0  0  0  0
   -0.2500   -3.1210    0.6180 H   0  0  0  0  0  0  0  0  0  0  0  0
    0.6000   -2.9360   -0.9380 H   0  0  0  0  0  0  0  0  0  0  0  0
   -2.7330    1.6480    0.0600 C   0  0  0  0  0  0  0  0  0  0  0  0
   -2.7290    2.7360    0.0490 H   0  0  0  0  0  0  0  0  0  0  0  0
    4.5810   -1.1220    0.2200 O   0  0  0  0  0  0  0  0  0  0  0  0
    5.3280   -0.5010    0.2600 H   0  0  0  0  0  0  0  0  0  0  0  0
   -2.7320   -1.1360    0.1110 C   0  0  0  0  0  0  0  0  0  0  0  0
   -2.7960   -2.2190    0.1660 H   0  0  0  0  0  0  0  0  0  0  0  0
   -3.9380    0.9650    0.1700 C   0  0  0  0  0  0  0  0  0  0  0  0
   -4.8740    1.5130    0.2420 H   0  0  0  0  0  0  0  0  0  0  0  0
   -3.9360   -0.4250    0.2030 C   0  0  0  0  0  0  0  0  0  0  0  0
   -4.8740   -0.9650    0.3050 H   0  0  0  0  0  0  0  0  0  0  0  0
  1  2  1  0  0  0  0
  1  3  2  0  0  0  0
  1  7  1  0  0  0  0
  2  5  1  0  0  0  0
  2 12  2  0  0  0  0
  3  4  1  0  0  0  0
  3  8  1  0  0  0  0
  4  6  1  0  0  0  0
  4 16  1  0  0  0  0
  5  6  2  0  0  0  0
  5 20  1  0  0  0  0
  6 24  1  0  0  0  0
  7 10  2  0  0  0  0
  7 14  1  0  0  0  0
  8  9  1  0  0  0  0
  8 13  2  0  0  0  0
 10 11  1  0  0  0  0
 10 13  1  0  0  0  0
 13 22  1  0  0  0  0
 14 15  1  0  0  0  0
 16 17  1  0  0  0  0
 16 18  1  0  0  0  0
 16 19  1  0  0  0  0
 20 21  1  0  0  0  0
 20 26  2  0  0  0  0
 22 23  1  0  0  0  0
 24 25  1  0  0  0  0
 24 28  2  0  0  0  0
 26 27  1  0  0  0  0
 26 28  1  0  0  0  0
 28 29  1  0  0  0  0
M  END
>  <IDNUMBER>
AK-693/40962732

>  <NAME>
1,3-Dihydroxy-10-methylacridone

>  <ADD_INFO>
http://www.specs.net/enter.php?specsid=AK-693/40962732

>  <H_ACCEPTORS>
2

>  <H_DONORS>
2

>  <ROTATABLE_BONDS>
0

>  <LOGP>
1.7

>  <LOGS>
-3.52

>  <TPSA>
60.77

>  <PRICE>
N07

$$$$
AK-693/40962734
  MOE2011           3D

 50 53  0  0  1  0  0  0  0  0999 V2000
   -2.6140    0.3390    0.2600 C   0  0  0  0  0  0  0  0  0  0  0  0
   -1.2410    0.0800    0.4200 C   0  0  0  0  0  0  0  0  0  0  0  0
   -3.5410   -0.6690   -0.0130 C   0  0  0  0  0  0  0  0  0  0  0  0
   -3.3220    1.5190    0.3200 N   0  0  0  0  0  0  0  0  0  0  0  0
   -2.9130    2.4230    0.5050 H   0  0  0  0  0  0  0  0  0  0  0  0
   -0.8160   -1.2530    0.2930 C   0  0  0  0  0  0  0  0  0  0  0  0
   -0.2800    1.1270    0.7260 C   0  0  0  0  0  0  0  0  0  0  0  0
   -0.6100    2.1300    0.9600 H   0  0  0  0  0  0  0  0  0  0  0  0
   -4.8300   -0.0560   -0.1190 C   0  0  0  0  0  0  0  0  0  0  0  0
   -4.6600    1.3100    0.0950 C   0  0  0  0  0  0  0  0  0  0  0  0
   -3.0840   -1.9990   -0.1250 C   0  0  0  0  0  0  0  0  0  0  0  0
   -3.7970   -2.7930   -0.3330 H   0  0  0  0  0  0  0  0  0  0  0  0
    0.5000   -1.6120    0.4520 O   0  0  0  0  0  0  0  0  0  0  0  0
   -1.7200   -2.2920    0.0340 C   0  0  0  0  0  0  0  0  0  0  0  0
    1.0160    0.8090    0.6930 C   0  0  0  0  0  0  0  0  0  0  0  0
    1.7520    1.5810    0.9000 H   0  0  0  0  0  0  0  0  0  0  0  0
    1.5180   -0.5800    0.3650 C   0  0  3  0  0  0  0  0  0  0  0  0
    5.2480    1.0220   -0.2210 C   0  0  0  0  0  0  0  0  0  0  0  0
    4.4940    0.1420   -0.9080 C   0  0  0  0  0  0  0  0  0  0  0  0
    4.9010   -0.8560   -1.0750 H   0  0  0  0  0  0  0  0  0  0  0  0
    3.1370    0.3560   -1.5160 C   0  0  0  0  0  0  0  0  0  0  0  0
    2.7580    1.3690   -1.3650 H   0  0  0  0  0  0  0  0  0  0  0  0
    3.2630    0.2540   -2.6020 H   0  0  0  0  0  0  0  0  0  0  0  0
   -6.1280   -0.5420   -0.3770 C   0  0  0  0  0  0  0  0  0  0  0  0
   -6.2980   -1.6010   -0.5490 H   0  0  0  0  0  0  0  0  0  0  0  0
   -5.7220    2.2210    0.0640 C   0  0  0  0  0  0  0  0  0  0  0  0
   -5.5680    3.2820    0.2330 H   0  0  0  0  0  0  0  0  0  0  0  0
   -1.2450   -3.7140   -0.0820 C   0  0  0  0  0  0  0  0  0  0  0  0
   -2.0750   -4.4000   -0.2820 H   0  0  0  0  0  0  0  0  0  0  0  0
   -0.7690   -4.0320    0.8510 H   0  0  0  0  0  0  0  0  0  0  0  0
   -0.5300   -3.8080   -0.9060 H   0  0  0  0  0  0  0  0  0  0  0  0
    2.0810   -0.6690   -1.0780 C   0  0  0  0  0  0  0  0  0  0  0  0
    2.4640   -1.6850   -1.2490 H   0  0  0  0  0  0  0  0  0  0  0  0
    1.2370   -0.5780   -1.7760 H   0  0  0  0  0  0  0  0  0  0  0  0
    2.5520   -0.9910    1.4230 C   0  0  0  0  0  0  0  0  0  0  0  0
    3.3420   -0.2490    1.5610 H   0  0  0  0  0  0  0  0  0  0  0  0
    3.0150   -1.9510    1.1640 H   0  0  0  0  0  0  0  0  0  0  0  0
    2.0690   -1.1400    2.3970 H   0  0  0  0  0  0  0  0  0  0  0  0
    6.5980    0.6150    0.3110 C   0  0  0  0  0  0  0  0  0  0  0  0
    6.6240    0.7230    1.4000 H   0  0  0  0  0  0  0  0  0  0  0  0
    7.3820    1.2460   -0.1210 H   0  0  0  0  0  0  0  0  0  0  0  0
    6.8430   -0.4270    0.0760 H   0  0  0  0  0  0  0  0  0  0  0  0
    4.8700    2.4430    0.0930 C   0  0  0  0  0  0  0  0  0  0  0  0
    5.6190    3.1290   -0.3160 H   0  0  0  0  0  0  0  0  0  0  0  0
    4.8280    2.5880    1.1780 H   0  0  0  0  0  0  0  0  0  0  0  0
    3.9030    2.7410   -0.3140 H   0  0  0  0  0  0  0  0  0  0  0  0
   -7.2020    0.3550   -0.4130 C   0  0  0  0  0  0  0  0  0  0  0  0
   -8.2030   -0.0170   -0.6130 H   0  0  0  0  0  0  0  0  0  0  0  0
   -6.9990    1.7150   -0.1950 C   0  0  0  0  0  0  0  0  0  0  0  0
   -7.8460    2.3960   -0.2270 H   0  0  0  0  0  0  0  0  0  0  0  0
  1  2  2  0  0  0  0
  1  3  1  0  0  0  0
  1  4  1  0  0  0  0
  2  6  1  0  0  0  0
  2  7  1  0  0  0  0
  3  9  1  0  0  0  0
  3 11  2  0  0  0  0
  4  5  1  0  0  0  0
  4 10  1  0  0  0  0
  6 13  1  0  0  0  0
  6 14  2  0  0  0  0
  7  8  1  0  0  0  0
  7 15  2  0  0  0  0
  9 10  2  0  0  0  0
  9 24  1  0  0  0  0
 10 26  1  0  0  0  0
 11 12  1  0  0  0  0
 11 14  1  0  0  0  0
 13 17  1  0  0  0  0
 14 28  1  0  0  0  0
 15 16  1  0  0  0  0
 15 17  1  0  0  0  0
 17 32  1  0  0  0  0
 17 35  1  0  0  0  0
 18 19  2  0  0  0  0
 18 39  1  0  0  0  0
 18 43  1  0  0  0  0
 19 20  1  0  0  0  0
 19 21  1  0  0  0  0
 21 22  1  0  0  0  0
 21 23  1  0  0  0  0
 21 32  1  0  0  0  0
 24 25  1  0  0  0  0
 24 47  2  0  0  0  0
 26 27  1  0  0  0  0
 26 49  2  0  0  0  0
 28 29  1  0  0  0  0
 28 30  1  0  0  0  0
 28 31  1  0  0  0  0
 32 33  1  0  0  0  0
 32 34  1  0  0  0  0
 35 36  1  0  0  0  0
 35 37  1  0  0  0  0
 35 38  1  0  0  0  0
 39 40  1  0  0  0  0
 39 41  1  0  0  0  0
 39 42  1  0  0  0  0
 43 44  1  0  0  0  0
 43 45  1  0  0  0  0
 43 46  1  0  0  0  0
 47 48  1  0  0  0  0
 47 49  1  0  0  0  0
 49 50  1  0  0  0  0
M  END
>  <IDNUMBER>
AK-693/40962734

>  <NAME>
Mahanimbine

>  <ADD_INFO>
http://www.specs.net/enter.php?specsid=AK-693/40962734

>  <H_ACCEPTORS>
1

>  <H_DONORS>
1

>  <ROTATABLE_BONDS>
3

>  <LOGP>
7.7399998

>  <LOGS>
-9.3400002

>  <TPSA>
25.02

>  <PRICE>
N07

$$$$
AK-693/40962736
  MOE2011           3D

 39 42  0  0  0  0  0  0  0  0999 V2000
    1.0210   -0.4480    0.1140 C   0  0  0  0  0  0  0  0  0  0  0  0
    1.7050    0.7650    0.0720 C   0  0  0  0  0  0  0  0  0  0  0  0
    1.9760   -1.4410    0.1010 N   0  0  0  0  0  0  0  0  0  0  0  0
    1.7720   -2.4290    0.1230 H   0  0  0  0  0  0  0  0  0  0  0  0
   -0.3840   -0.5420    0.1610 C   0  0  0  0  0  0  0  0  0  0  0  0
   -1.0960    0.6730    0.1390 C   0  0  0  0  0  0  0  0  0  0  0  0
    3.1060    0.4730    0.0350 C   0  0  0  0  0  0  0  0  0  0  0  0
    3.2430   -0.9130    0.0540 C   0  0  0  0  0  0  0  0  0  0  0  0
    0.9610    1.9620    0.0730 C   0  0  0  0  0  0  0  0  0  0  0  0
    1.4800    2.9160    0.0440 H   0  0  0  0  0  0  0  0  0  0  0  0
   -2.4700    0.7280    0.1740 O   0  0  0  0  0  0  0  0  0  0  0  0
   -0.4410    1.9150    0.1060 C   0  0  0  0  0  0  0  0  0  0  0  0
   -1.1010   -1.8590    0.2010 C   0  0  0  0  0  0  0  0  0  0  0  0
   -1.0800   -2.3050   -0.8000 H   0  0  0  0  0  0  0  0  0  0  0  0
   -0.5880   -2.5520    0.8780 H   0  0  0  0  0  0  0  0  0  0  0  0
   -3.1970   -0.4920   -0.0420 C   0  0  0  0  0  0  0  0  0  0  0  0
   -2.5330   -1.6750    0.6720 C   0  0  0  0  0  0  0  0  0  0  0  0
   -2.5160   -1.4810    1.7530 H   0  0  0  0  0  0  0  0  0  0  0  0
   -3.0990   -2.6020    0.5200 H   0  0  0  0  0  0  0  0  0  0  0  0
    4.2720    1.2660   -0.0130 C   0  0  0  0  0  0  0  0  0  0  0  0
    4.2030    2.3490   -0.0290 H   0  0  0  0  0  0  0  0  0  0  0  0
    4.4880   -1.5530    0.0280 C   0  0  0  0  0  0  0  0  0  0  0  0
    4.5720   -2.6350    0.0430 H   0  0  0  0  0  0  0  0  0  0  0  0
   -1.2270    3.1980    0.1020 C   0  0  0  0  0  0  0  0  0  0  0  0
   -0.5690    4.0720    0.0600 H   0  0  0  0  0  0  0  0  0  0  0  0
   -1.8260    3.2780    1.0150 H   0  0  0  0  0  0  0  0  0  0  0  0
   -1.8850    3.2370   -0.7720 H   0  0  0  0  0  0  0  0  0  0  0  0
   -3.3600   -0.7160   -1.5530 C   0  0  0  0  0  0  0  0  0  0  0  0
   -3.9310   -1.6260   -1.7630 H   0  0  0  0  0  0  0  0  0  0  0  0
   -2.3950   -0.7890   -2.0650 H   0  0  0  0  0  0  0  0  0  0  0  0
   -3.8790    0.1320   -2.0150 H   0  0  0  0  0  0  0  0  0  0  0  0
   -4.5870   -0.2630    0.5690 C   0  0  0  0  0  0  0  0  0  0  0  0
   -5.2340   -1.1380    0.4410 H   0  0  0  0  0  0  0  0  0  0  0  0
   -5.0790    0.6030    0.1110 H   0  0  0  0  0  0  0  0  0  0  0  0
   -4.5110   -0.0410    1.6400 H   0  0  0  0  0  0  0  0  0  0  0  0
    5.5250    0.6430   -0.0400 C   0  0  0  0  0  0  0  0  0  0  0  0
    6.4250    1.2510   -0.0770 H   0  0  0  0  0  0  0  0  0  0  0  0
    5.6280   -0.7460   -0.0200 C   0  0  0  0  0  0  0  0  0  0  0  0
    6.6110   -1.2120   -0.0410 H   0  0  0  0  0  0  0  0  0  0  0  0
  1  2  2  0  0  0  0
  1  3  1  0  0  0  0
  1  5  1  0  0  0  0
  2  7  1  0  0  0  0
  2  9  1  0  0  0  0
  3  4  1  0  0  0  0
  3  8  1  0  0  0  0
  5  6  2  0  0  0  0
  5 13  1  0  0  0  0
  6 11  1  0  0  0  0
  6 12  1  0  0  0  0
  7  8  2  0  0  0  0
  7 20  1  0  0  0  0
  8 22  1  0  0  0  0
  9 10  1  0  0  0  0
  9 12  2  0  0  0  0
 11 16  1  0  0  0  0
 12 24  1  0  0  0  0
 13 14  1  0  0  0  0
 13 15  1  0  0  0  0
 13 17  1  0  0  0  0
 16 17  1  0  0  0  0
 16 28  1  0  0  0  0
 16 32  1  0  0  0  0
 17 18  1  0  0  0  0
 17 19  1  0  0  0  0
 20 21  1  0  0  0  0
 20 36  2  0  0  0  0
 22 23  1  0  0  0  0
 22 38  2  0  0  0  0
 24 25  1  0  0  0  0
 24 26  1  0  0  0  0
 24 27  1  0  0  0  0
 28 29  1  0  0  0  0
 28 30  1  0  0  0  0
 28 31  1  0  0  0  0
 32 33  1  0  0  0  0
 32 34  1  0  0  0  0
 32 35  1  0  0  0  0
 36 37  1  0  0  0  0
 36 38  1  0  0  0  0
 38 39  1  0  0  0  0
M  END
>  <IDNUMBER>
AK-693/40962736

>  <NAME>
3,3,5-trimethyl-1,2,3,11-tetrahydropyrano[3,2-a]carbazole

>  <ADD_INFO>
http://www.specs.net/enter.php?specsid=AK-693/40962736

>  <H_ACCEPTORS>
1

>  <H_DONORS>
1

>  <ROTATABLE_BONDS>
0

>  <LOGP>
5.6599998

>  <LOGS>
-7.0799999

>  <TPSA>
25.02

>  <PRICE>
N07

$$$$
AK-693/40962737
  MOE2011           3D

 36 38  0  0  1  0  0  0  0  0999 V2000
    0.0800   -1.1050   -0.2580 C   0  0  0  0  0  0  0  0  0  0  0  0
    0.0970    0.3040   -0.2150 C   0  0  0  0  0  0  0  0  0  0  0  0
    1.3820   -1.8210   -0.3470 C   0  0  0  0  0  0  0  0  0  0  0  0
    1.3330    0.9930   -0.2570 N   0  0  0  0  0  0  0  0  0  0  0  0
   -1.1400   -1.7920   -0.2120 C   0  0  0  0  0  0  0  0  0  0  0  0
    2.6280   -1.0580   -0.1170 C   0  0  0  0  0  0  0  0  0  0  0  0
    2.5710    0.3440   -0.0680 C   0  0  0  0  0  0  0  0  0  0  0  0
   -2.3590   -1.1060   -0.1030 C   0  0  0  0  0  0  0  0  0  0  0  0
   -1.1430    0.9730   -0.1110 C   0  0  0  0  0  0  0  0  0  0  0  0
   -1.1470    2.0540   -0.0330 H   0  0  0  0  0  0  0  0  0  0  0  0
   -2.3710    0.2910   -0.0790 C   0  0  0  0  0  0  0  0  0  0  0  0
    1.4650   -3.0180   -0.5960 O   0  0  0  0  0  0  0  0  0  0  0  0
   -1.1990   -3.1630   -0.2440 O   0  0  0  0  0  0  0  0  0  0  0  0
   -2.1500   -3.3850   -0.2390 H   0  0  0  0  0  0  0  0  0  0  0  0
   -3.4610   -1.9310   -0.0780 O   0  0  0  0  0  0  0  0  0  0  0  0
    1.3340    2.4380   -0.5030 C   0  0  0  0  0  0  0  0  0  0  0  0
    2.2390    2.7720   -1.0230 H   0  0  0  0  0  0  0  0  0  0  0  0
    1.2450    2.9880    0.4400 H   0  0  0  0  0  0  0  0  0  0  0  0
    0.5220    2.7430   -1.1720 H   0  0  0  0  0  0  0  0  0  0  0  0
   -3.5900    0.9130   -0.0360 O   0  0  0  0  0  0  0  0  0  0  0  0
    3.8370   -1.7540    0.0400 C   0  0  0  0  0  0  0  0  0  0  0  0
    3.8590   -2.8400   -0.0130 H   0  0  0  0  0  0  0  0  0  0  0  0
    3.7770    1.0210    0.1900 C   0  0  0  0  0  0  0  0  0  0  0  0
    3.8080    2.1030    0.2890 H   0  0  0  0  0  0  0  0  0  0  0  0
   -4.4930   -1.5420    0.8250 C   0  0  0  0  0  0  0  0  0  0  0  0
   -5.0250   -2.4500    1.1280 H   0  0  0  0  0  0  0  0  0  0  0  0
   -5.2160   -0.8940    0.3220 H   0  0  0  0  0  0  0  0  0  0  0  0
   -4.1020   -1.0710    1.7340 H   0  0  0  0  0  0  0  0  0  0  0  0
   -3.6280    2.3270   -0.1840 C   0  0  0  0  0  0  0  0  0  0  0  0
   -4.6790    2.6300   -0.2180 H   0  0  0  0  0  0  0  0  0  0  0  0
   -3.1610    2.6420   -1.1230 H   0  0  0  0  0  0  0  0  0  0  0  0
   -3.1670    2.8230    0.6770 H   0  0  0  0  0  0  0  0  0  0  0  0
    5.0170   -1.0550    0.2740 C   0  0  0  0  0  0  0  0  0  0  0  0
    5.9540   -1.5910    0.4000 H   0  0  0  0  0  0  0  0  0  0  0  0
    4.9850    0.3320    0.3560 C   0  0  0  0  0  0  0  0  0  0  0  0
    5.9000    0.8850    0.5520 H   0  0  0  0  0  0  0  0  0  0  0  0
  1  2  2  0  0  0  0
  1  3  1  0  0  0  0
  1  5  1  0  0  0  0
  2  4  1  0  0  0  0
  2  9  1  0  0  0  0
  3  6  1  0  0  0  0
  3 12  2  0  0  0  0
  4  7  1  0  0  0  0
  4 16  1  0  0  0  0
  5  8  2  0  0  0  0
  5 13  1  0  0  0  0
  6  7  2  0  0  0  0
  6 21  1  0  0  0  0
  7 23  1  0  0  0  0
  8 11  1  0  0  0  0
  8 15  1  0  0  0  0
  9 10  1  0  0  0  0
  9 11  2  0  0  0  0
 11 20  1  0  0  0  0
 13 14  1  0  0  0  0
 15 25  1  0  0  0  0
 16 17  1  0  0  0  0
 16 18  1  0  0  0  0
 16 19  1  0  0  0  0
 20 29  1  0  0  0  0
 21 22  1  0  0  0  0
 21 33  2  0  0  0  0
 23 24  1  0  0  0  0
 23 35  2  0  0  0  0
 25 26  1  0  0  0  0
 25 27  1  0  0  0  0
 25 28  1  0  0  0  0
 29 30  1  0  0  0  0
 29 31  1  0  0  0  0
 29 32  1  0  0  0  0
 33 34  1  0  0  0  0
 33 35  1  0  0  0  0
 35 36  1  0  0  0  0
M  END
>  <IDNUMBER>
AK-693/40962737

>  <NAME>
1,2,3- Trihydroxyacridone (Arborinine)

>  <ADD_INFO>
http://www.specs.net/enter.php?specsid=AK-693/40962737

>  <H_ACCEPTORS>
2

>  <H_DONORS>
1

>  <ROTATABLE_BONDS>
2

>  <LOGP>
1.5700001

>  <LOGS>
-3.73

>  <TPSA>
59

>  <PRICE>
N07

$$$$
AK-693/40962738
  MOE2011           3D

 37 39  0  0  1  0  0  0  0  0999 V2000
   -0.8260   -0.0340    0.1030 C   0  0  0  0  0  0  0  0  0  0  0  0
   -1.2550    1.2930    0.0990 C   0  0  0  0  0  0  0  0  0  0  0  0
    0.5030   -0.3690    0.1770 O   0  0  0  0  0  0  0  0  0  0  0  0
   -0.2620    2.3720    0.2230 C   0  0  0  0  0  0  0  0  0  0  0  0
   -2.6140    1.5950    0.0120 C   0  0  0  0  0  0  0  0  0  0  0  0
   -1.7690   -1.0770    0.0670 C   0  0  0  0  0  0  0  0  0  0  0  0
    1.3840    0.6460   -0.3330 C   0  0  3  0  0  0  0  0  0  0  0  0
    1.1710    1.9650    0.3990 C   0  0  0  0  0  0  0  0  0  0  0  0
    1.8170    2.7470   -0.0160 H   0  0  0  0  0  0  0  0  0  0  0  0
    1.3630    1.8760    1.4750 H   0  0  0  0  0  0  0  0  0  0  0  0
   -3.1440   -0.7620   -0.0420 C   0  0  0  0  0  0  0  0  0  0  0  0
   -3.5570    0.5760   -0.0670 C   0  0  0  0  0  0  0  0  0  0  0  0
   -4.6020    0.8570   -0.1430 H   0  0  0  0  0  0  0  0  0  0  0  0
   -0.6520    3.5380    0.2320 O   0  0  0  0  0  0  0  0  0  0  0  0
    2.8190    0.1780   -0.1780 C   0  0  0  0  0  0  0  0  0  0  0  0
   -3.0710    2.8880    0.0070 O   0  0  0  0  0  0  0  0  0  0  0  0
   -2.2800    3.4760    0.0910 H   0  0  0  0  0  0  0  0  0  0  0  0
   -3.9960   -1.8350   -0.1220 O   0  0  0  0  0  0  0  0  0  0  0  0
   -1.3180   -2.5160    0.0700 C   0  0  0  0  0  0  0  0  0  0  0  0
   -2.0170   -3.1490    0.6260 H   0  0  0  0  0  0  0  0  0  0  0  0
   -0.3460   -2.6360    0.5580 H   0  0  0  0  0  0  0  0  0  0  0  0
   -1.2430   -2.8830   -0.9580 H   0  0  0  0  0  0  0  0  0  0  0  0
    3.7630    0.4650   -1.1770 C   0  0  0  0  0  0  0  0  0  0  0  0
    3.4700    1.0060   -2.0740 H   0  0  0  0  0  0  0  0  0  0  0  0
    3.2420   -0.5120    0.9690 C   0  0  0  0  0  0  0  0  0  0  0  0
    2.5350   -0.7430    1.7630 H   0  0  0  0  0  0  0  0  0  0  0  0
   -5.3890   -1.5630   -0.2130 C   0  0  0  0  0  0  0  0  0  0  0  0
   -5.9140   -2.5230   -0.2580 H   0  0  0  0  0  0  0  0  0  0  0  0
   -5.6250   -1.0130   -1.1300 H   0  0  0  0  0  0  0  0  0  0  0  0
   -5.7470   -1.0300    0.6740 H   0  0  0  0  0  0  0  0  0  0  0  0
    5.0930    0.0620   -1.0360 C   0  0  0  0  0  0  0  0  0  0  0  0
    5.8140    0.2870   -1.8170 H   0  0  0  0  0  0  0  0  0  0  0  0
    4.5720   -0.9150    1.1080 C   0  0  0  0  0  0  0  0  0  0  0  0
    4.8840   -1.4530    1.9990 H   0  0  0  0  0  0  0  0  0  0  0  0
    5.4960   -0.6280    0.1060 C   0  0  0  0  0  0  0  0  0  0  0  0
    6.5310   -0.9410    0.2140 H   0  0  0  0  0  0  0  0  0  0  0  0
    1.1690    0.7560   -1.4060 H   0  0  0  0  0  0  0  0  0  0  0  0
  1  2  2  0  0  0  0
  1  3  1  0  0  0  0
  1  6  1  0  0  0  0
  2  4  1  0  0  0  0
  2  5  1  0  0  0  0
  3  7  1  0  0  0  0
  4  8  1  0  0  0  0
  4 14  2  0  0  0  0
  5 12  2  0  0  0  0
  5 16  1  0  0  0  0
  6 11  2  0  0  0  0
  6 19  1  0  0  0  0
  7  8  1  0  0  0  0
  7 15  1  0  0  0  0
  7 37  1  0  0  0  0
  8  9  1  0  0  0  0
  8 10  1  0  0  0  0
 11 12  1  0  0  0  0
 11 18  1  0  0  0  0
 12 13  1  0  0  0  0
 15 23  2  0  0  0  0
 15 25  1  0  0  0  0
 16 17  1  0  0  0  0
 18 27  1  0  0  0  0
 19 20  1  0  0  0  0
 19 21  1  0  0  0  0
 19 22  1  0  0  0  0
 23 24  1  0  0  0  0
 23 31  1  0  0  0  0
 25 26  1  0  0  0  0
 25 33  2  0  0  0  0
 27 28  1  0  0  0  0
 27 29  1  0  0  0  0
 27 30  1  0  0  0  0
 31 32  1  0  0  0  0
 31 35  2  0  0  0  0
 33 34  1  0  0  0  0
 33 35  1  0  0  0  0
 35 36  1  0  0  0  0
M  END
>  <IDNUMBER>
AK-693/40962738

>  <NAME>
5-hydroxy-7-methoxy-8-methyl-2-phenyl-2,3-dihydro-4H-chromen-4-one

>  <ADD_INFO>
http://www.specs.net/enter.php?specsid=AK-693/40962738

>  <H_ACCEPTORS>
1

>  <H_DONORS>
1

>  <ROTATABLE_BONDS>
2

>  <LOGP>
4.1999998

>  <LOGS>
-4.2800002

>  <TPSA>
55.759998

>  <PRICE>
N07

$$$$
AK-693/40962741
  MOE2011           3D

 22 24  0  0  0  0  0  0  0  0999 V2000
   -1.1560   -0.8270   -0.0340 C   0  0  0  0  0  0  0  0  0  0  0  0
   -2.4140   -1.4650   -0.0280 O   0  0  0  0  0  0  0  0  0  0  0  0
   -0.0280   -1.6460   -0.0580 C   0  0  0  0  0  0  0  0  0  0  0  0
   -0.1090   -2.7260   -0.0730 H   0  0  0  0  0  0  0  0  0  0  0  0
   -1.0650    0.5740   -0.0200 C   0  0  0  0  0  0  0  0  0  0  0  0
   -3.5950   -0.7360   -0.0070 C   0  0  0  0  0  0  0  0  0  0  0  0
    1.1970   -1.0160   -0.0570 C   0  0  0  0  0  0  0  0  0  0  0  0
   -2.2920    1.3540   -0.0010 C   0  0  0  0  0  0  0  0  0  0  0  0
   -2.2290    2.4370    0.0090 H   0  0  0  0  0  0  0  0  0  0  0  0
   -3.4740    0.7320    0.0060 C   0  0  0  0  0  0  0  0  0  0  0  0
   -4.4050    1.2870    0.0210 H   0  0  0  0  0  0  0  0  0  0  0  0
    1.3150    0.3680   -0.0460 C   0  0  0  0  0  0  0  0  0  0  0  0
    0.1950    1.1840   -0.0340 C   0  0  0  0  0  0  0  0  0  0  0  0
    0.3010    2.2640   -0.0400 H   0  0  0  0  0  0  0  0  0  0  0  0
    2.4030   -1.6680   -0.0870 O   0  0  0  0  0  0  0  0  0  0  0  0
   -4.6970   -1.2740    0.0000 O   0  0  0  0  0  0  0  0  0  0  0  0
    3.3630   -0.6260    0.2090 C   0  0  0  0  0  0  0  0  0  0  0  0
    3.6130   -0.6960    1.2760 H   0  0  0  0  0  0  0  0  0  0  0  0
    4.2790   -0.8040   -0.3640 H   0  0  0  0  0  0  0  0  0  0  0  0
    2.7470    0.7340   -0.1230 C   0  0  0  0  0  0  0  0  0  0  0  0
    3.0470    1.5030    0.5930 H   0  0  0  0  0  0  0  0  0  0  0  0
    3.0040    1.0460   -1.1410 H   0  0  0  0  0  0  0  0  0  0  0  0
  1  2  1  0  0  0  0
  1  3  2  0  0  0  0
  1  5  1  0  0  0  0
  2  6  1  0  0  0  0
  3  4  1  0  0  0  0
  3  7  1  0  0  0  0
  5  8  1  0  0  0  0
  5 13  2  0  0  0  0
  6 10  1  0  0  0  0
  6 16  2  0  0  0  0
  7 12  2  0  0  0  0
  7 15  1  0  0  0  0
  8  9  1  0  0  0  0
  8 10  2  0  0  0  0
 10 11  1  0  0  0  0
 12 13  1  0  0  0  0
 12 20  1  0  0  0  0
 13 14  1  0  0  0  0
 15 17  1  0  0  0  0
 17 18  1  0  0  0  0
 17 19  1  0  0  0  0
 17 20  1  0  0  0  0
 20 21  1  0  0  0  0
 20 22  1  0  0  0  0
M  END
>  <IDNUMBER>
AK-693/40962741

>  <NAME>
2,3-dihydro-7H-furo[3,2-g]chromen-7-one

>  <ADD_INFO>
http://www.specs.net/enter.php?specsid=AK-693/40962741

>  <H_ACCEPTORS>
1

>  <H_DONORS>
0

>  <ROTATABLE_BONDS>
0

>  <LOGP>
2.03

>  <LOGS>
-2.3099999

>  <TPSA>
35.529999

>  <PRICE>
N07

$$$$
AK-693/40962743
  MOE2011           3D

 38 41  0  0  0  0  0  0  0  0999 V2000
    0.5180   -0.5070    0.2690 C   0  0  0  0  0  0  0  0  0  0  0  0
    0.0960   -1.7790    0.1200 C   0  0  0  0  0  0  0  0  0  0  0  0
   -0.3120    0.6020    0.3020 O   0  0  0  0  0  0  0  0  0  0  0  0
   -1.3740   -2.0280    0.0560 C   0  0  0  0  0  0  0  0  0  0  0  0
   -1.6650    0.4130    0.2120 C   0  0  0  0  0  0  0  0  0  0  0  0
   -2.2440   -0.8440    0.0930 C   0  0  0  0  0  0  0  0  0  0  0  0
    1.9490   -0.1540    0.3730 C   0  0  0  0  0  0  0  0  0  0  0  0
    3.8380    1.0990   -0.3860 C   0  0  0  0  0  0  0  0  0  0  0  0
   -2.4730    1.5490    0.2460 C   0  0  0  0  0  0  0  0  0  0  0  0
   -2.0210    2.5330    0.3390 H   0  0  0  0  0  0  0  0  0  0  0  0
    2.5000    0.7850   -0.5160 C   0  0  0  0  0  0  0  0  0  0  0  0
    1.9020    1.2530   -1.2910 H   0  0  0  0  0  0  0  0  0  0  0  0
   -3.6330   -0.9740    0.0100 C   0  0  0  0  0  0  0  0  0  0  0  0
   -4.0910   -1.9570   -0.0810 H   0  0  0  0  0  0  0  0  0  0  0  0
    4.6280    0.5280    0.5840 C   0  0  0  0  0  0  0  0  0  0  0  0
    4.5290    1.9740   -1.1660 O   0  0  0  0  0  0  0  0  0  0  0  0
   -1.8550   -3.1520   -0.0190 O   0  0  0  0  0  0  0  0  0  0  0  0
    5.9120    0.9750    0.5380 O   0  0  0  0  0  0  0  0  0  0  0  0
    5.8430    1.8850   -0.5780 C   0  0  0  0  0  0  0  0  0  0  0  0
    6.5490    1.5510   -1.3470 H   0  0  0  0  0  0  0  0  0  0  0  0
    6.1420    2.8830   -0.2360 H   0  0  0  0  0  0  0  0  0  0  0  0
    2.7710   -0.7280    1.3720 C   0  0  0  0  0  0  0  0  0  0  0  0
    2.3540   -1.4490    2.0730 H   0  0  0  0  0  0  0  0  0  0  0  0
    0.9780   -2.8460    0.0880 O   0  0  0  0  0  0  0  0  0  0  0  0
    4.1240   -0.3880    1.4800 C   0  0  0  0  0  0  0  0  0  0  0  0
    4.7540   -0.8310    2.2430 H   0  0  0  0  0  0  0  0  0  0  0  0
   -3.8650    1.4330    0.1610 C   0  0  0  0  0  0  0  0  0  0  0  0
   -4.4430    0.1660    0.0450 C   0  0  0  0  0  0  0  0  0  0  0  0
   -5.5180    0.0290   -0.0210 H   0  0  0  0  0  0  0  0  0  0  0  0
   -4.5400    2.6220    0.2040 O   0  0  0  0  0  0  0  0  0  0  0  0
    0.8980   -3.5800   -1.1320 C   0  0  0  0  0  0  0  0  0  0  0  0
    1.8130   -4.1720   -1.2240 H   0  0  0  0  0  0  0  0  0  0  0  0
    0.8360   -2.9150   -2.0010 H   0  0  0  0  0  0  0  0  0  0  0  0
    0.0530   -4.2730   -1.1180 H   0  0  0  0  0  0  0  0  0  0  0  0
   -5.9570    2.5630    0.0970 C   0  0  0  0  0  0  0  0  0  0  0  0
   -6.3390    3.5880    0.1330 H   0  0  0  0  0  0  0  0  0  0  0  0
   -6.3930    2.0150    0.9390 H   0  0  0  0  0  0  0  0  0  0  0  0
   -6.2640    2.1270   -0.8600 H   0  0  0  0  0  0  0  0  0  0  0  0
  1  2  2  0  0  0  0
  1  3  1  0  0  0  0
  1  7  1  0  0  0  0
  2  4  1  0  0  0  0
  2 24  1  0  0  0  0
  3  5  1  0  0  0  0
  4  6  1  0  0  0  0
  4 17  2  0  0  0  0
  5  6  2  0  0  0  0
  5  9  1  0  0  0  0
  6 13  1  0  0  0  0
  7 11  1  0  0  0  0
  7 22  2  0  0  0  0
  8 11  2  0  0  0  0
  8 15  1  0  0  0  0
  8 16  1  0  0  0  0
  9 10  1  0  0  0  0
  9 27  2  0  0  0  0
 11 12  1  0  0  0  0
 13 14  1  0  0  0  0
 13 28  2  0  0  0  0
 15 18  1  0  0  0  0
 15 25  2  0  0  0  0
 16 19  1  0  0  0  0
 18 19  1  0  0  0  0
 19 20  1  0  0  0  0
 19 21  1  0  0  0  0
 22 23  1  0  0  0  0
 22 25  1  0  0  0  0
 24 31  1  0  0  0  0
 25 26  1  0  0  0  0
 27 28  1  0  0  0  0
 27 30  1  0  0  0  0
 28 29  1  0  0  0  0
 30 35  1  0  0  0  0
 31 32  1  0  0  0  0
 31 33  1  0  0  0  0
 31 34  1  0  0  0  0
 35 36  1  0  0  0  0
 35 37  1  0  0  0  0
 35 38  1  0  0  0  0
M  END
>  <IDNUMBER>
AK-693/40962743

>  <NAME>
2-(1,3-benzodioxol-5-yl)-3,7-dimethoxy-4H-chromen-4-one

>  <ADD_INFO>
http://www.specs.net/enter.php?specsid=AK-693/40962743

>  <H_ACCEPTORS>
2

>  <H_DONORS>
0

>  <ROTATABLE_BONDS>
3

>  <LOGP>
2.9400001

>  <LOGS>
-4.0900002

>  <TPSA>
63.220001

>  <PRICE>
N07

$$$$
AK-693/40962748
  MOE2011           3D

 54 57  0  0  1  0  0  0  0  0999 V2000
    0.8740    1.1580   -0.8480 C   0  0  0  0  0  0  0  0  0  0  0  0
   -2.0770    0.2940    0.7510 C   0  0  1  0  0  0  0  0  0  0  0  0
    2.9000   -0.7510   -0.8780 C   0  0  0  0  0  0  0  0  0  0  0  0
    1.6950   -0.9590   -1.6810 C   0  0  0  0  0  0  0  0  0  0  0  0
   -3.5540    0.1670    1.1950 C   0  0  1  0  0  0  0  0  0  0  0  0
    0.6770    0.0980   -1.6470 C   0  0  0  0  0  0  0  0  0  0  0  0
   -0.1980   -0.0380   -2.2690 H   0  0  0  0  0  0  0  0  0  0  0  0
    3.0010    0.4020   -0.1100 C   0  0  0  0  0  0  0  0  0  0  0  0
   -4.2950   -0.9640    0.4610 C   0  0  2  0  0  0  0  0  0  0  0  0
    2.0070    1.3490   -0.0660 O   0  0  0  0  0  0  0  0  0  0  0  0
   -1.3450   -0.9450    0.8000 O   0  0  0  0  0  0  0  0  0  0  0  0
   -3.3370   -1.8830   -0.2980 C   0  0  1  0  0  0  0  0  0  0  0  0
    3.9360   -1.6850   -0.8900 C   0  0  0  0  0  0  0  0  0  0  0  0
   -2.1030   -2.1340    0.5720 C   0  0  1  0  0  0  0  0  0  0  0  0
   -0.1070    2.2620   -0.7680 C   0  0  0  0  0  0  0  0  0  0  0  0
   -2.0480    0.8120   -0.5940 O   0  0  0  0  0  0  0  0  0  0  0  0
   -1.4950    2.0670   -0.6460 C   0  0  0  0  0  0  0  0  0  0  0  0
    4.1490    0.6320    0.6550 C   0  0  0  0  0  0  0  0  0  0  0  0
    4.2010    1.5410    1.2450 H   0  0  0  0  0  0  0  0  0  0  0  0
    5.0820   -1.4580   -0.1350 C   0  0  0  0  0  0  0  0  0  0  0  0
    5.8920   -2.1830   -0.1490 H   0  0  0  0  0  0  0  0  0  0  0  0
    5.1950   -0.2980    0.6420 C   0  0  0  0  0  0  0  0  0  0  0  0
    1.5730   -1.9800   -2.3510 O   0  0  0  0  0  0  0  0  0  0  0  0
   -3.5970   -0.0830    2.6080 O   0  0  0  0  0  0  0  0  0  0  0  0
   -4.5190    0.0070    2.9060 H   0  0  0  0  0  0  0  0  0  0  0  0
   -5.2340   -0.4470   -0.4890 O   0  0  0  0  0  0  0  0  0  0  0  0
   -5.9400    0.0130    0.0010 H   0  0  0  0  0  0  0  0  0  0  0  0
   -4.0020   -3.1160   -0.6170 O   0  0  0  0  0  0  0  0  0  0  0  0
   -4.8190   -2.8500   -1.0860 H   0  0  0  0  0  0  0  0  0  0  0  0
    3.8640   -2.8340   -1.6330 O   0  0  0  0  0  0  0  0  0  0  0  0
    2.9810   -2.8350   -2.0800 H   0  0  0  0  0  0  0  0  0  0  0  0
   -1.1990   -3.2090   -0.0450 C   0  0  0  0  0  0  0  0  0  0  0  0
   -0.3070   -3.3650    0.5710 H   0  0  0  0  0  0  0  0  0  0  0  0
   -0.8530   -2.9020   -1.0370 H   0  0  0  0  0  0  0  0  0  0  0  0
    6.3700   -0.1920    1.3380 O   0  0  0  0  0  0  0  0  0  0  0  0
    0.3670    3.5850   -0.8140 C   0  0  0  0  0  0  0  0  0  0  0  0
    1.4340    3.7830   -0.8980 H   0  0  0  0  0  0  0  0  0  0  0  0
   -1.8860   -4.4530   -0.1690 O   0  0  0  0  0  0  0  0  0  0  0  0
   -2.8060   -4.2270   -0.4540 H   0  0  0  0  0  0  0  0  0  0  0  0
   -2.3790    3.1520   -0.6350 C   0  0  0  0  0  0  0  0  0  0  0  0
   -3.4520    2.9850   -0.5840 H   0  0  0  0  0  0  0  0  0  0  0  0
    6.5540    0.9780    2.1260 C   0  0  0  0  0  0  0  0  0  0  0  0
    7.5370    0.9090    2.6020 H   0  0  0  0  0  0  0  0  0  0  0  0
    5.8030    1.0390    2.9210 H   0  0  0  0  0  0  0  0  0  0  0  0
    6.5460    1.8780    1.5040 H   0  0  0  0  0  0  0  0  0  0  0  0
   -0.5140    4.6710   -0.7740 C   0  0  0  0  0  0  0  0  0  0  0  0
   -0.1250    5.6850   -0.8180 H   0  0  0  0  0  0  0  0  0  0  0  0
   -1.8860    4.4530   -0.6930 C   0  0  0  0  0  0  0  0  0  0  0  0
   -2.5710    5.2970   -0.6780 H   0  0  0  0  0  0  0  0  0  0  0  0
   -1.5560    0.9630    1.4490 H   0  0  0  0  0  0  0  0  0  0  0  0
   -4.0650    1.1220    1.0280 H   0  0  0  0  0  0  0  0  0  0  0  0
   -4.8840   -1.5600    1.1690 H   0  0  0  0  0  0  0  0  0  0  0  0
   -3.0490   -1.4340   -1.2560 H   0  0  0  0  0  0  0  0  0  0  0  0
   -2.4330   -2.5170    1.5470 H   0  0  0  0  0  0  0  0  0  0  0  0
  1  6  2  0  0  0  0
  1 10  1  0  0  0  0
  1 15  1  0  0  0  0
  2  5  1  0  0  0  0
  2 11  1  0  0  0  0
  2 16  1  0  0  0  0
  2 50  1  0  0  0  0
  3  4  1  0  0  0  0
  3  8  2  0  0  0  0
  3 13  1  0  0  0  0
  4  6  1  0  0  0  0
  4 23  2  0  0  0  0
  5  9  1  0  0  0  0
  5 24  1  0  0  0  0
  5 51  1  0  0  0  0
  6  7  1  0  0  0  0
  8 10  1  0  0  0  0
  8 18  1  0  0  0  0
  9 12  1  0  0  0  0
  9 26  1  0  0  0  0
  9 52  1  0  0  0  0
 11 14  1  0  0  0  0
 12 14  1  0  0  0  0
 12 28  1  0  0  0  0
 12 53  1  0  0  0  0
 13 20  2  0  0  0  0
 13 30  1  0  0  0  0
 14 32  1  0  0  0  0
 14 54  1  0  0  0  0
 15 17  2  0  0  0  0
 15 36  1  0  0  0  0
 16 17  1  0  0  0  0
 17 40  1  0  0  0  0
 18 19  1  0  0  0  0
 18 22  2  0  0  0  0
 20 21  1  0  0  0  0
 20 22  1  0  0  0  0
 22 35  1  0  0  0  0
 24 25  1  0  0  0  0
 26 27  1  0  0  0  0
 28 29  1  0  0  0  0
 30 31  1  0  0  0  0
 32 33  1  0  0  0  0
 32 34  1  0  0  0  0
 32 38  1  0  0  0  0
 35 42  1  0  0  0  0
 36 37  1  0  0  0  0
 36 46  2  0  0  0  0
 38 39  1  0  0  0  0
 40 41  1  0  0  0  0
 40 48  2  0  0  0  0
 42 43  1  0  0  0  0
 42 44  1  0  0  0  0
 42 45  1  0  0  0  0
 46 47  1  0  0  0  0
 46 48  1  0  0  0  0
 48 49  1  0  0  0  0
M  END
>  <IDNUMBER>
AK-693/40962748

>  <NAME>
Echioidin

>  <ADD_INFO>
http://www.specs.net/enter.php?specsid=AK-693/40962748

>  <H_ACCEPTORS>
6

>  <H_DONORS>
5

>  <ROTATABLE_BONDS>
5

>  <LOGP>
1.4

>  <LOGS>
-3.0699999

>  <TPSA>
155.14

>  <PRICE>
N07

$$$$
AK-693/40962749
  MOE2011           3D

 48 54  0  0  1  0  0  0  0  0999 V2000
   -1.1400   -1.2290   -1.0500 N   0  3  1  0  0  0  0  0  0  0  0  0
   -0.8270   -1.9330   -1.7350 H   0  0  0  0  0  0  0  0  0  0  0  0
    1.3630   -0.5960    0.3350 C   0  0  2  0  0  0  0  0  0  0  0  0
   -0.6240    0.7220    0.3180 C   0  0  2  0  0  0  0  0  0  0  0  0
   -0.4230    0.0770   -1.1770 C   0  0  1  0  0  0  0  0  0  0  0  0
    1.0680    0.0520   -1.0820 C   0  0  2  0  0  0  0  0  0  0  0  0
    0.8480    0.6700    1.0080 C   0  0  3  0  0  0  0  0  0  0  0  0
   -1.5600   -0.3530    0.9510 C   0  0  3  0  0  0  0  0  0  0  0  0
   -0.9540   -1.6360    0.3910 C   0  0  3  0  0  0  0  0  0  0  0  0
    3.0750    1.1440   -0.5380 C   0  0  1  0  0  0  0  0  0  0  0  0
    1.9770    1.7340    0.5340 C   0  0  0  0  0  0  0  0  0  0  0  0
   -2.9620   -0.3440    0.2680 C   0  0  2  0  0  0  0  0  0  0  0  0
    3.7670    0.1580    0.3480 C   0  0  0  0  0  0  0  0  0  0  0  0
    2.3680    0.3350   -1.7660 C   0  0  1  0  0  0  0  0  0  0  0  0
   -2.6560   -0.9700   -1.1260 C   0  0  0  0  0  0  0  0  0  0  0  0
   -2.8550   -0.3230   -1.9850 H   0  0  0  0  0  0  0  0  0  0  0  0
   -3.1260   -1.9470   -1.2780 H   0  0  0  0  0  0  0  0  0  0  0  0
    2.8320   -0.9480    0.7260 C   0  0  0  0  0  0  0  0  0  0  0  0
    2.8920   -1.1290    1.8070 H   0  0  0  0  0  0  0  0  0  0  0  0
    3.1410   -1.8700    0.2200 H   0  0  0  0  0  0  0  0  0  0  0  0
    0.5160   -1.8340    0.6590 C   0  0  0  0  0  0  0  0  0  0  0  0
    0.6430   -2.1010    1.7150 H   0  0  0  0  0  0  0  0  0  0  0  0
    0.8760   -2.6860    0.0680 H   0  0  0  0  0  0  0  0  0  0  0  0
   -1.2300    2.1160    0.3110 C   0  0  0  0  0  0  0  0  0  0  0  0
   -0.5930    2.8260   -0.2270 H   0  0  0  0  0  0  0  0  0  0  0  0
   -1.3750    2.4950    1.3280 H   0  0  0  0  0  0  0  0  0  0  0  0
   -3.5610    1.0690    0.1740 C   0  0  0  0  0  0  0  0  0  0  0  0
   -3.8640    1.4350    1.1620 H   0  0  0  0  0  0  0  0  0  0  0  0
   -4.4510    1.0690   -0.4650 H   0  0  0  0  0  0  0  0  0  0  0  0
   -2.5690    2.0610   -0.3790 C   0  0  0  0  0  0  0  0  0  0  0  0
    1.9710    2.9020    0.9110 O   0  0  0  0  0  0  0  0  0  0  0  0
    5.0370    0.2550    0.7620 C   0  0  0  0  0  0  0  0  0  0  0  0
    5.6690    1.0880    0.4670 H   0  0  0  0  0  0  0  0  0  0  0  0
    5.4780   -0.4940    1.4130 H   0  0  0  0  0  0  0  0  0  0  0  0
   -2.8330    2.7740   -1.3420 O   0  0  0  0  0  0  0  0  0  0  0  0
    3.0060   -0.8610   -2.1570 O   0  0  0  0  0  0  0  0  0  0  0  0
    3.9450   -0.6560   -2.3220 H   0  0  0  0  0  0  0  0  0  0  0  0
   -3.9650   -1.2250    1.0350 C   0  0  0  0  0  0  0  0  0  0  0  0
   -4.1210   -0.8460    2.0510 H   0  0  0  0  0  0  0  0  0  0  0  0
   -3.6310   -2.2640    1.1220 H   0  0  0  0  0  0  0  0  0  0  0  0
   -4.9370   -1.2380    0.5280 H   0  0  0  0  0  0  0  0  0  0  0  0
   -0.8350    0.6550   -2.0120 H   0  0  0  0  0  0  0  0  0  0  0  0
    0.9420    1.1540   -1.1390 H   0  0  0  0  0  0  0  0  0  0  0  0
    0.8150    0.6190    2.1000 H   0  0  0  0  0  0  0  0  0  0  0  0
   -1.5990   -0.3020    2.0430 H   0  0  0  0  0  0  0  0  0  0  0  0
   -1.5220   -2.5530    0.5750 H   0  0  0  0  0  0  0  0  0  0  0  0
    3.7220    1.9450   -0.9050 H   0  0  0  0  0  0  0  0  0  0  0  0
    2.2610    0.9850   -2.6430 H   0  0  0  0  0  0  0  0  0  0  0  0
  1  2  1  0  0  0  0
  1  5  1  0  0  0  0
  1  9  1  0  0  0  0
  1 15  1  0  0  0  0
  3  6  1  0  0  0  0
  3  7  1  0  0  0  0
  3 18  1  0  0  0  0
  3 21  1  0  0  0  0
  4  5  1  0  0  0  0
  4  7  1  0  0  0  0
  4  8  1  0  0  0  0
  4 24  1  0  0  0  0
  5  6  1  0  0  0  0
  5 42  1  0  0  0  0
  6 14  1  0  0  0  0
  6 43  1  0  0  0  0
  7 11  1  0  0  0  0
  7 44  1  0  0  0  0
  8  9  1  0  0  0  0
  8 12  1  0  0  0  0
  8 45  1  0  0  0  0
  9 21  1  0  0  0  0
  9 46  1  0  0  0  0
 10 11  1  0  0  0  0
 10 13  1  0  0  0  0
 10 14  1  0  0  0  0
 10 47  1  0  0  0  0
 11 31  2  0  0  0  0
 12 15  1  0  0  0  0
 12 27  1  0  0  0  0
 12 38  1  0  0  0  0
 13 18  1  0  0  0  0
 13 32  2  0  0  0  0
 14 36  1  0  0  0  0
 14 48  1  0  0  0  0
 15 16  1  0  0  0  0
 15 17  1  0  0  0  0
 18 19  1  0  0  0  0
 18 20  1  0  0  0  0
 21 22  1  0  0  0  0
 21 23  1  0  0  0  0
 24 25  1  0  0  0  0
 24 26  1  0  0  0  0
 24 30  1  0  0  0  0
 27 28  1  0  0  0  0
 27 29  1  0  0  0  0
 27 30  1  0  0  0  0
 30 35  2  0  0  0  0
 32 33  1  0  0  0  0
 32 34  1  0  0  0  0
 36 37  1  0  0  0  0
 38 39  1  0  0  0  0
 38 40  1  0  0  0  0
 38 41  1  0  0  0  0
M  CHG  1   1   1
M  END
>  <IDNUMBER>
AK-693/40962749

>  <NAME>
Hetisine, Derivative of.

>  <ADD_INFO>
http://www.specs.net/enter.php?specsid=AK-693/40962749

>  <H_ACCEPTORS>
4

>  <H_DONORS>
1

>  <ROTATABLE_BONDS>
0

>  <LOGP>
0.44

>  <LOGS>
-0.94

>  <TPSA>
57.610001

>  <PRICE>
N10

$$$$
AK-693/40962756
  MOE2011           3D

 42 45  0  0  1  0  0  0  0  0999 V2000
    0.9220   -0.2360    0.3290 C   0  0  0  0  0  0  0  0  0  0  0  0
    1.9150    0.5450   -0.3120 C   0  0  0  0  0  0  0  0  0  0  0  0
   -0.4540    0.3430    0.6670 C   0  0  1  0  0  0  0  0  0  0  0  0
    1.2310   -1.5590    0.7140 C   0  0  0  0  0  0  0  0  0  0  0  0
    0.5110   -2.1820    1.2360 H   0  0  0  0  0  0  0  0  0  0  0  0
   -0.7210    1.7740    0.0920 C   0  0  2  0  0  0  0  0  0  0  0  0
    2.4740   -2.0680    0.4060 C   0  0  0  0  0  0  0  0  0  0  0  0
    3.4160   -1.3180   -0.2500 C   0  0  0  0  0  0  0  0  0  0  0  0
    1.6510    1.9730   -0.7080 C   0  0  0  0  0  0  0  0  0  0  0  0
    2.5790    2.5520   -0.6110 H   0  0  0  0  0  0  0  0  0  0  0  0
    1.3630    1.9890   -1.7670 H   0  0  0  0  0  0  0  0  0  0  0  0
    0.5650    2.6330    0.1520 C   0  0  1  0  0  0  0  0  0  0  0  0
    3.1690   -0.0150   -0.6230 C   0  0  0  0  0  0  0  0  0  0  0  0
    3.9340    0.5600   -1.1340 H   0  0  0  0  0  0  0  0  0  0  0  0
   -1.5910   -0.6050    0.2770 C   0  0  0  0  0  0  0  0  0  0  0  0
    2.9160   -3.3210    0.6940 O   0  0  0  0  0  0  0  0  0  0  0  0
    4.5710   -2.0030   -0.4630 O   0  0  0  0  0  0  0  0  0  0  0  0
    4.2450   -3.2750    0.1340 C   0  0  0  0  0  0  0  0  0  0  0  0
    4.9680   -3.4850    0.9300 H   0  0  0  0  0  0  0  0  0  0  0  0
    4.3300   -4.0550   -0.6320 H   0  0  0  0  0  0  0  0  0  0  0  0
   -2.4500   -1.1170    1.2630 C   0  0  0  0  0  0  0  0  0  0  0  0
   -2.3170   -0.8430    2.3070 H   0  0  0  0  0  0  0  0  0  0  0  0
   -1.7950   -0.9850   -1.0620 C   0  0  0  0  0  0  0  0  0  0  0  0
   -1.1370   -0.6120   -1.8440 H   0  0  0  0  0  0  0  0  0  0  0  0
   -3.6730   -2.3430   -0.4110 C   0  0  0  0  0  0  0  0  0  0  0  0
   -3.4880   -1.9830    0.9190 C   0  0  0  0  0  0  0  0  0  0  0  0
   -4.1510   -2.3750    1.6850 H   0  0  0  0  0  0  0  0  0  0  0  0
   -2.8340   -1.8520   -1.4060 C   0  0  0  0  0  0  0  0  0  0  0  0
   -2.9680   -2.1320   -2.4460 H   0  0  0  0  0  0  0  0  0  0  0  0
   -4.7000   -3.1930   -0.7010 O   0  0  0  0  0  0  0  0  0  0  0  0
   -4.7380   -3.3220   -1.6630 H   0  0  0  0  0  0  0  0  0  0  0  0
   -1.8890    2.4420    0.8380 C   0  0  0  0  0  0  0  0  0  0  0  0
   -2.1690    3.3900    0.3690 H   0  0  0  0  0  0  0  0  0  0  0  0
   -1.6280    2.6410    1.8830 H   0  0  0  0  0  0  0  0  0  0  0  0
   -2.7860    1.8170    0.8260 H   0  0  0  0  0  0  0  0  0  0  0  0
    0.3560    4.0720   -0.3290 C   0  0  0  0  0  0  0  0  0  0  0  0
    1.3100    4.6070   -0.3820 H   0  0  0  0  0  0  0  0  0  0  0  0
   -0.2850    4.6330    0.3570 H   0  0  0  0  0  0  0  0  0  0  0  0
   -0.1000    4.0960   -1.3250 H   0  0  0  0  0  0  0  0  0  0  0  0
   -1.0160    1.6950   -0.9640 H   0  0  0  0  0  0  0  0  0  0  0  0
    0.9130    2.6760    1.1940 H   0  0  0  0  0  0  0  0  0  0  0  0
   -0.4460    0.4400    1.7640 H   0  0  0  0  0  0  0  0  0  0  0  0
  1  2  1  0  0  0  0
  1  3  1  0  0  0  0
  1  4  2  0  0  0  0
  2  9  1  0  0  0  0
  2 13  2  0  0  0  0
  3  6  1  0  0  0  0
  3 15  1  0  0  0  0
  3 42  1  0  0  0  0
  4  5  1  0  0  0  0
  4  7  1  0  0  0  0
  6 12  1  0  0  0  0
  6 32  1  0  0  0  0
  6 40  1  0  0  0  0
  7  8  2  0  0  0  0
  7 16  1  0  0  0  0
  8 13  1  0  0  0  0
  8 17  1  0  0  0  0
  9 10  1  0  0  0  0
  9 11  1  0  0  0  0
  9 12  1  0  0  0  0
 12 36  1  0  0  0  0
 12 41  1  0  0  0  0
 13 14  1  0  0  0  0
 15 21  2  0  0  0  0
 15 23  1  0  0  0  0
 16 18  1  0  0  0  0
 17 18  1  0  0  0  0
 18 19  1  0  0  0  0
 18 20  1  0  0  0  0
 21 22  1  0  0  0  0
 21 26  1  0  0  0  0
 23 24  1  0  0  0  0
 23 28  2  0  0  0  0
 25 26  2  0  0  0  0
 25 28  1  0  0  0  0
 25 30  1  0  0  0  0
 26 27  1  0  0  0  0
 28 29  1  0  0  0  0
 30 31  1  0  0  0  0
 32 33  1  0  0  0  0
 32 34  1  0  0  0  0
 32 35  1  0  0  0  0
 36 37  1  0  0  0  0
 36 38  1  0  0  0  0
 36 39  1  0  0  0  0
M  END
>  <IDNUMBER>
AK-693/40962756

>  <NAME>
4-(6,7-dimethyl-5,6,7,8-tetrahydronaphtho[2,3-d][1,3]dioxol-5-yl)phenol

>  <ADD_INFO>
http://www.specs.net/enter.php?specsid=AK-693/40962756

>  <H_ACCEPTORS>
0

>  <H_DONORS>
1

>  <ROTATABLE_BONDS>
1

>  <LOGP>
5.4899998

>  <LOGS>
-5.4699998

>  <TPSA>
38.689999

>  <PRICE>
N07

$$$$
AK-693/40962758
  MOE2011           3D

 41 44  0  0  0  0  0  0  0  0999 V2000
    0.2040    0.8700    0.0250 C   0  0  0  0  0  0  0  0  0  0  0  0
   -1.2020    0.8000    0.0300 C   0  0  0  0  0  0  0  0  0  0  0  0
    1.0130   -0.2670    0.0210 C   0  0  0  0  0  0  0  0  0  0  0  0
    1.0540    1.9550    0.0220 N   0  0  0  0  0  0  0  0  0  0  0  0
    0.7540    2.9190    0.0230 H   0  0  0  0  0  0  0  0  0  0  0  0
   -1.7860   -0.4780    0.0310 C   0  0  0  0  0  0  0  0  0  0  0  0
    2.3780    0.1670    0.0160 C   0  0  0  0  0  0  0  0  0  0  0  0
    2.3700    1.5590    0.0170 C   0  0  0  0  0  0  0  0  0  0  0  0
   -2.0380    1.9880    0.0360 C   0  0  0  0  0  0  0  0  0  0  0  0
   -1.5970    2.9760    0.0540 H   0  0  0  0  0  0  0  0  0  0  0  0
    0.3990   -1.5360    0.0240 C   0  0  0  0  0  0  0  0  0  0  0  0
    1.0160   -2.4300    0.0230 H   0  0  0  0  0  0  0  0  0  0  0  0
   -3.1440   -0.6690    0.0420 O   0  0  0  0  0  0  0  0  0  0  0  0
   -1.0020   -1.6420    0.0300 C   0  0  0  0  0  0  0  0  0  0  0  0
   -3.3630    1.8220    0.0150 C   0  0  0  0  0  0  0  0  0  0  0  0
   -4.0050    2.7000    0.0140 H   0  0  0  0  0  0  0  0  0  0  0  0
   -4.0280    0.4680   -0.0120 C   0  0  0  0  0  0  0  0  0  0  0  0
    3.6210   -0.5060    0.0090 C   0  0  0  0  0  0  0  0  0  0  0  0
    3.6210   -1.5900    0.0090 H   0  0  0  0  0  0  0  0  0  0  0  0
    3.5420    2.3210    0.0140 C   0  0  0  0  0  0  0  0  0  0  0  0
    3.5180    3.4060    0.0160 H   0  0  0  0  0  0  0  0  0  0  0  0
    4.8090    0.2350    0.0050 C   0  0  0  0  0  0  0  0  0  0  0  0
    4.7580    1.6310    0.0090 C   0  0  0  0  0  0  0  0  0  0  0  0
    5.6870    2.1980    0.0060 H   0  0  0  0  0  0  0  0  0  0  0  0
    6.0770   -0.2880   -0.0020 O   0  0  0  0  0  0  0  0  0  0  0  0
   -1.6440   -3.0020    0.0340 C   0  0  0  0  0  0  0  0  0  0  0  0
   -0.8940   -3.8000    0.0320 H   0  0  0  0  0  0  0  0  0  0  0  0
   -2.2670   -3.1290   -0.8570 H   0  0  0  0  0  0  0  0  0  0  0  0
   -2.2600   -3.1270    0.9300 H   0  0  0  0  0  0  0  0  0  0  0  0
   -4.9610    0.3390    1.1980 C   0  0  0  0  0  0  0  0  0  0  0  0
   -5.7280    1.1210    1.2110 H   0  0  0  0  0  0  0  0  0  0  0  0
   -4.3940    0.3970    2.1360 H   0  0  0  0  0  0  0  0  0  0  0  0
   -5.4620   -0.6360    1.2030 H   0  0  0  0  0  0  0  0  0  0  0  0
   -4.8390    0.3260   -1.3050 C   0  0  0  0  0  0  0  0  0  0  0  0
   -5.5990    1.1100   -1.4010 H   0  0  0  0  0  0  0  0  0  0  0  0
   -5.3410   -0.6480   -1.3460 H   0  0  0  0  0  0  0  0  0  0  0  0
   -4.1850    0.3730   -2.1840 H   0  0  0  0  0  0  0  0  0  0  0  0
    6.1850   -1.7060   -0.0280 C   0  0  0  0  0  0  0  0  0  0  0  0
    7.2500   -1.9580   -0.0380 H   0  0  0  0  0  0  0  0  0  0  0  0
    5.7360   -2.1200   -0.9360 H   0  0  0  0  0  0  0  0  0  0  0  0
    5.7470   -2.1520    0.8710 H   0  0  0  0  0  0  0  0  0  0  0  0
  1  2  2  0  0  0  0
  1  3  1  0  0  0  0
  1  4  1  0  0  0  0
  2  6  1  0  0  0  0
  2  9  1  0  0  0  0
  3  7  1  0  0  0  0
  3 11  2  0  0  0  0
  4  5  1  0  0  0  0
  4  8  1  0  0  0  0
  6 13  1  0  0  0  0
  6 14  2  0  0  0  0
  7  8  2  0  0  0  0
  7 18  1  0  0  0  0
  8 20  1  0  0  0  0
  9 10  1  0  0  0  0
  9 15  2  0  0  0  0
 11 12  1  0  0  0  0
 11 14  1  0  0  0  0
 13 17  1  0  0  0  0
 14 26  1  0  0  0  0
 15 16  1  0  0  0  0
 15 17  1  0  0  0  0
 17 30  1  0  0  0  0
 17 34  1  0  0  0  0
 18 19  1  0  0  0  0
 18 22  2  0  0  0  0
 20 21  1  0  0  0  0
 20 23  2  0  0  0  0
 22 23  1  0  0  0  0
 22 25  1  0  0  0  0
 23 24  1  0  0  0  0
 25 38  1  0  0  0  0
 26 27  1  0  0  0  0
 26 28  1  0  0  0  0
 26 29  1  0  0  0  0
 30 31  1  0  0  0  0
 30 32  1  0  0  0  0
 30 33  1  0  0  0  0
 34 35  1  0  0  0  0
 34 36  1  0  0  0  0
 34 37  1  0  0  0  0
 38 39  1  0  0  0  0
 38 40  1  0  0  0  0
 38 41  1  0  0  0  0
M  END
>  <IDNUMBER>
AK-693/40962758

>  <NAME>
8-methoxy-3,3,5-trimethyl-3,11-dihydropyrano[3,2-a]carbazole

>  <ADD_INFO>
http://www.specs.net/enter.php?specsid=AK-693/40962758

>  <H_ACCEPTORS>
1

>  <H_DONORS>
1

>  <ROTATABLE_BONDS>
1

>  <LOGP>
5.52

>  <LOGS>
-7.1700001

>  <TPSA>
34.25

>  <PRICE>
N07

$$$$
AK-693/40962759
  MOE2011           3D

 41 44  0  0  1  0  0  0  0  0999 V2000
    0.0210    1.3000    0.7240 C   0  0  1  0  0  0  0  0  0  0  0  0
    0.3080    1.2050   -0.7060 O   0  0  0  0  0  0  0  0  0  0  0  0
    0.7930    2.3510   -0.0750 C   0  0  2  0  0  0  0  0  0  0  0  0
   -1.3210    0.7090    0.9110 C   0  0  1  0  0  0  0  0  0  0  0  0
    1.7100   -1.4330   -0.2040 C   0  0  3  0  0  0  0  0  0  0  0  0
    3.1310   -1.4410    0.0410 O   0  0  0  0  0  0  0  0  0  0  0  0
   -2.3690    1.4430    0.2820 O   0  0  0  0  0  0  0  0  0  0  0  0
   -3.3610    0.5550   -0.0500 C   0  0  0  0  0  0  0  0  0  0  0  0
    2.6380   -0.2070   -0.4820 C   0  0  2  0  0  0  0  0  0  0  0  0
   -1.3990   -0.6850    0.2820 C   0  0  3  0  0  0  0  0  0  0  0  0
   -2.9140   -0.8620    0.2560 C   0  0  3  0  0  0  0  0  0  0  0  0
   -0.6070   -1.8070    0.9770 C   0  0  0  0  0  0  0  0  0  0  0  0
   -0.9970   -1.9340    1.9960 H   0  0  0  0  0  0  0  0  0  0  0  0
   -0.8310   -2.7470    0.4580 H   0  0  0  0  0  0  0  0  0  0  0  0
    0.9360   -1.6870    1.0820 C   0  0  0  0  0  0  0  0  0  0  0  0
    1.2910   -2.6490    1.4790 H   0  0  0  0  0  0  0  0  0  0  0  0
    1.2090   -0.9700    1.8590 H   0  0  0  0  0  0  0  0  0  0  0  0
    2.3140    2.3150   -0.0350 C   0  0  0  0  0  0  0  0  0  0  0  0
    2.6910    2.5670   -1.0340 H   0  0  0  0  0  0  0  0  0  0  0  0
    2.6610    3.1000    0.6470 H   0  0  0  0  0  0  0  0  0  0  0  0
   -4.4470    0.8830   -0.5000 O   0  0  0  0  0  0  0  0  0  0  0  0
    2.9500    0.9680    0.4130 C   0  0  0  0  0  0  0  0  0  0  0  0
    2.7070    0.7510    1.4570 H   0  0  0  0  0  0  0  0  0  0  0  0
    4.0380    1.1080    0.3930 H   0  0  0  0  0  0  0  0  0  0  0  0
    0.1370    3.6250   -0.4830 C   0  0  0  0  0  0  0  0  0  0  0  0
    0.3440    4.4080    0.2530 H   0  0  0  0  0  0  0  0  0  0  0  0
   -0.9490    3.5230   -0.5690 H   0  0  0  0  0  0  0  0  0  0  0  0
    0.5190    3.9590   -1.4530 H   0  0  0  0  0  0  0  0  0  0  0  0
    1.3570   -2.3220   -1.3680 C   0  0  0  0  0  0  0  0  0  0  0  0
    0.3860   -2.0490   -1.7890 H   0  0  0  0  0  0  0  0  0  0  0  0
    1.3170   -3.3710   -1.0540 H   0  0  0  0  0  0  0  0  0  0  0  0
    2.0950   -2.2460   -2.1730 H   0  0  0  0  0  0  0  0  0  0  0  0
   -3.3920   -1.8510   -0.7940 C   0  0  0  0  0  0  0  0  0  0  0  0
   -3.0140   -2.8570   -0.5890 H   0  0  0  0  0  0  0  0  0  0  0  0
   -3.0660   -1.5600   -1.7990 H   0  0  0  0  0  0  0  0  0  0  0  0
   -4.4860   -1.8990   -0.8100 H   0  0  0  0  0  0  0  0  0  0  0  0
    0.6450    0.8980    1.5070 H   0  0  0  0  0  0  0  0  0  0  0  0
   -1.5440    0.6720    1.9860 H   0  0  0  0  0  0  0  0  0  0  0  0
    2.8690    0.0180   -1.5180 H   0  0  0  0  0  0  0  0  0  0  0  0
   -1.0710   -0.6460   -0.7650 H   0  0  0  0  0  0  0  0  0  0  0  0
   -3.3010   -1.1340    1.2450 H   0  0  0  0  0  0  0  0  0  0  0  0
  1  2  1  0  0  0  0
  1  3  1  0  0  0  0
  1  4  1  0  0  0  0
  1 37  1  0  0  0  0
  2  3  1  0  0  0  0
  3 18  1  0  0  0  0
  3 25  1  0  0  0  0
  4  7  1  0  0  0  0
  4 10  1  0  0  0  0
  4 38  1  0  0  0  0
  5  6  1  0  0  0  0
  5  9  1  0  0  0  0
  5 15  1  0  0  0  0
  5 29  1  0  0  0  0
  6  9  1  0  0  0  0
  7  8  1  0  0  0  0
  8 11  1  0  0  0  0
  8 21  2  0  0  0  0
  9 22  1  0  0  0  0
  9 39  1  0  0  0  0
 10 11  1  0  0  0  0
 10 12  1  0  0  0  0
 10 40  1  0  0  0  0
 11 33  1  0  0  0  0
 11 41  1  0  0  0  0
 12 13  1  0  0  0  0
 12 14  1  0  0  0  0
 12 15  1  0  0  0  0
 15 16  1  0  0  0  0
 15 17  1  0  0  0  0
 18 19  1  0  0  0  0
 18 20  1  0  0  0  0
 18 22  1  0  0  0  0
 22 23  1  0  0  0  0
 22 24  1  0  0  0  0
 25 26  1  0  0  0  0
 25 27  1  0  0  0  0
 25 28  1  0  0  0  0
 29 30  1  0  0  0  0
 29 31  1  0  0  0  0
 29 32  1  0  0  0  0
 33 34  1  0  0  0  0
 33 35  1  0  0  0  0
 33 36  1  0  0  0  0
M  END
>  <IDNUMBER>
AK-693/40962759

>  <NAME>
Dihydroparthenolide, derivative of (epoxy)

>  <ADD_INFO>
http://www.specs.net/enter.php?specsid=AK-693/40962759

>  <H_ACCEPTORS>
4

>  <H_DONORS>
0

>  <ROTATABLE_BONDS>
0

>  <LOGP>
1.3099999

>  <LOGS>
-2.26

>  <TPSA>
51.360001

>  <PRICE>
N09

$$$$
AK-693/40962761
  MOE2011           3D

 71 75  0  0  1  0  0  0  0  0999 V2000
   -1.2180   -0.3790    0.0900 C   0  0  1  0  0  0  0  0  0  0  0  0
   -2.2040    0.7620    0.5700 C   0  0  1  0  0  0  0  0  0  0  0  0
    0.2480    0.2670    0.0760 C   0  0  1  0  0  0  0  0  0  0  0  0
   -3.5450    0.3000    0.8320 O   0  0  0  0  0  0  0  0  0  0  0  0
    1.4720   -0.7470   -0.2060 C   0  0  1  0  0  0  0  0  0  0  0  0
   -2.8230    0.7860    1.9670 C   0  0  0  0  0  0  0  0  0  0  0  0
   -3.1580    1.7140    2.4090 H   0  0  0  0  0  0  0  0  0  0  0  0
   -2.5440    0.0720    2.7290 H   0  0  0  0  0  0  0  0  0  0  0  0
   -1.1950   -1.5790    1.0950 C   0  0  2  0  0  0  0  0  0  0  0  0
    2.8450    0.0170   -0.0090 C   0  0  3  0  0  0  0  0  0  0  0  0
    3.0780    0.2950    1.3770 O   0  0  0  0  0  0  0  0  0  0  0  0
   -2.1560    2.0260   -0.2720 C   0  0  1  0  0  0  0  0  0  0  0  0
    1.3180   -1.9190    0.8500 C   0  0  1  0  0  0  0  0  0  0  0  0
    4.4790    0.5460    1.5560 C   0  0  1  0  0  0  0  0  0  0  0  0
   -1.7680   -0.9220   -1.2790 C   0  0  0  0  0  0  0  0  0  0  0  0
   -2.8650   -0.9650   -1.2560 H   0  0  0  0  0  0  0  0  0  0  0  0
   -1.4270   -1.9430   -1.4650 H   0  0  0  0  0  0  0  0  0  0  0  0
   -0.0680   -2.5760    0.8140 C   0  0  0  0  0  0  0  0  0  0  0  0
   -0.1200   -3.3610    1.5810 H   0  0  0  0  0  0  0  0  0  0  0  0
   -0.2290   -3.1120   -0.1270 H   0  0  0  0  0  0  0  0  0  0  0  0
    0.3020    1.6040   -0.7220 C   0  0  0  0  0  0  0  0  0  0  0  0
    1.2570    2.1120   -0.5690 H   0  0  0  0  0  0  0  0  0  0  0  0
    0.2270    1.4390   -1.7980 H   0  0  0  0  0  0  0  0  0  0  0  0
    5.2210    0.0310    0.3180 C   0  0  1  0  0  0  0  0  0  0  0  0
    4.1420   -0.6030   -0.5360 C   0  0  0  0  0  0  0  0  0  0  0  0
    4.1800   -1.6830   -0.4030 H   0  0  0  0  0  0  0  0  0  0  0  0
    4.2760   -0.4160   -1.6080 H   0  0  0  0  0  0  0  0  0  0  0  0
   -2.4420   -2.3090    1.0150 O   0  0  0  0  0  0  0  0  0  0  0  0
   -3.2160    2.9810    0.0100 O   0  0  0  0  0  0  0  0  0  0  0  0
    4.7430    1.9610    1.6930 O   0  0  0  0  0  0  0  0  0  0  0  0
   -2.9230   -2.8570    2.1640 C   0  0  0  0  0  0  0  0  0  0  0  0
   -3.1400    3.9010    1.0020 C   0  0  0  0  0  0  0  0  0  0  0  0
    5.5160    2.2780    0.6000 C   0  0  0  0  0  0  0  0  0  0  0  0
    5.8000    3.3150    0.5290 H   0  0  0  0  0  0  0  0  0  0  0  0
   -1.6280   -0.6340   -3.6200 C   0  0  0  0  0  0  0  0  0  0  0  0
   -0.7520    2.6150   -0.2660 C   0  0  0  0  0  0  0  0  0  0  0  0
   -0.7160    3.5100   -0.8980 H   0  0  0  0  0  0  0  0  0  0  0  0
   -0.4740    2.9420    0.7420 H   0  0  0  0  0  0  0  0  0  0  0  0
    5.8150    1.2800   -0.2220 C   0  0  0  0  0  0  0  0  0  0  0  0
    6.4160    1.3590   -1.1150 H   0  0  0  0  0  0  0  0  0  0  0  0
   -1.3960   -0.1000   -2.3900 O   0  0  0  0  0  0  0  0  0  0  0  0
   -2.2400    4.0250    1.8180 O   0  0  0  0  0  0  0  0  0  0  0  0
   -2.3890   -2.8070    3.2630 O   0  0  0  0  0  0  0  0  0  0  0  0
   -2.1090   -1.7350   -3.8420 O   0  0  0  0  0  0  0  0  0  0  0  0
    1.4540   -1.2720   -1.6560 C   0  0  0  0  0  0  0  0  0  0  0  0
    0.5990   -1.9080   -1.8720 H   0  0  0  0  0  0  0  0  0  0  0  0
    2.3290   -1.8900   -1.8810 H   0  0  0  0  0  0  0  0  0  0  0  0
    1.4580   -0.4480   -2.3770 H   0  0  0  0  0  0  0  0  0  0  0  0
    2.3690   -3.0340    0.7970 C   0  0  0  0  0  0  0  0  0  0  0  0
    2.0890   -3.8680    1.4520 H   0  0  0  0  0  0  0  0  0  0  0  0
    3.3340   -2.6840    1.1710 H   0  0  0  0  0  0  0  0  0  0  0  0
    2.4920   -3.4420   -0.2100 H   0  0  0  0  0  0  0  0  0  0  0  0
   -4.2260   -3.5420    1.8880 C   0  0  0  0  0  0  0  0  0  0  0  0
   -4.9560   -2.8170    1.5200 H   0  0  0  0  0  0  0  0  0  0  0  0
   -4.6080   -3.9810    2.8150 H   0  0  0  0  0  0  0  0  0  0  0  0
   -4.0770   -4.3430    1.1590 H   0  0  0  0  0  0  0  0  0  0  0  0
   -4.3670    4.7620    0.9780 C   0  0  0  0  0  0  0  0  0  0  0  0
   -4.4580    5.2520    0.0060 H   0  0  0  0  0  0  0  0  0  0  0  0
   -4.2830    5.5340    1.7480 H   0  0  0  0  0  0  0  0  0  0  0  0
   -5.2500    4.1530    1.1870 H   0  0  0  0  0  0  0  0  0  0  0  0
   -1.2000    0.3340   -4.6800 C   0  0  0  0  0  0  0  0  0  0  0  0
   -0.1280    0.5290   -4.5920 H   0  0  0  0  0  0  0  0  0  0  0  0
   -1.7690    1.2620   -4.5860 H   0  0  0  0  0  0  0  0  0  0  0  0
   -1.3970   -0.0970   -5.6660 H   0  0  0  0  0  0  0  0  0  0  0  0
    0.4070    0.5880    1.1200 H   0  0  0  0  0  0  0  0  0  0  0  0
    6.0120   -0.6810    0.5720 H   0  0  0  0  0  0  0  0  0  0  0  0
    4.8040    0.0430    2.4730 H   0  0  0  0  0  0  0  0  0  0  0  0
   -1.0390   -1.1960    2.1090 H   0  0  0  0  0  0  0  0  0  0  0  0
    2.7930    0.9820   -0.5160 H   0  0  0  0  0  0  0  0  0  0  0  0
   -2.3820    1.7470   -1.3040 H   0  0  0  0  0  0  0  0  0  0  0  0
    1.4100   -1.4750    1.8510 H   0  0  0  0  0  0  0  0  0  0  0  0
  1  2  1  0  0  0  0
  1  3  1  0  0  0  0
  1  9  1  0  0  0  0
  1 15  1  0  0  0  0
  2  4  1  0  0  0  0
  2  6  1  0  0  0  0
  2 12  1  0  0  0  0
  3  5  1  0  0  0  0
  3 21  1  0  0  0  0
  3 65  1  0  0  0  0
  4  6  1  0  0  0  0
  5 10  1  0  0  0  0
  5 13  1  0  0  0  0
  5 45  1  0  0  0  0
  6  7  1  0  0  0  0
  6  8  1  0  0  0  0
  9 18  1  0  0  0  0
  9 28  1  0  0  0  0
  9 68  1  0  0  0  0
 10 11  1  0  0  0  0
 10 25  1  0  0  0  0
 10 69  1  0  0  0  0
 11 14  1  0  0  0  0
 12 29  1  0  0  0  0
 12 36  1  0  0  0  0
 12 70  1  0  0  0  0
 13 18  1  0  0  0  0
 13 49  1  0  0  0  0
 13 71  1  0  0  0  0
 14 24  1  0  0  0  0
 14 30  1  0  0  0  0
 14 67  1  0  0  0  0
 15 16  1  0  0  0  0
 15 17  1  0  0  0  0
 15 41  1  0  0  0  0
 18 19  1  0  0  0  0
 18 20  1  0  0  0  0
 21 22  1  0  0  0  0
 21 23  1  0  0  0  0
 21 36  1  0  0  0  0
 24 25  1  0  0  0  0
 24 39  1  0  0  0  0
 24 66  1  0  0  0  0
 25 26  1  0  0  0  0
 25 27  1  0  0  0  0
 28 31  1  0  0  0  0
 29 32  1  0  0  0  0
 30 33  1  0  0  0  0
 31 43  2  0  0  0  0
 31 53  1  0  0  0  0
 32 42  2  0  0  0  0
 32 57  1  0  0  0  0
 33 34  1  0  0  0  0
 33 39  2  0  0  0  0
 35 41  1  0  0  0  0
 35 44  2  0  0  0  0
 35 61  1  0  0  0  0
 36 37  1  0  0  0  0
 36 38  1  0  0  0  0
 39 40  1  0  0  0  0
 45 46  1  0  0  0  0
 45 47  1  0  0  0  0
 45 48  1  0  0  0  0
 49 50  1  0  0  0  0
 49 51  1  0  0  0  0
 49 52  1  0  0  0  0
 53 54  1  0  0  0  0
 53 55  1  0  0  0  0
 53 56  1  0  0  0  0
 57 58  1  0  0  0  0
 57 59  1  0  0  0  0
 57 60  1  0  0  0  0
 61 62  1  0  0  0  0
 61 63  1  0  0  0  0
 61 64  1  0  0  0  0
M  END
>  <IDNUMBER>
AK-693/40962761

>  <NAME>
3-epi Caryoptin

>  <ADD_INFO>
http://www.specs.net/enter.php?specsid=AK-693/40962761

>  <H_ACCEPTORS>
9

>  <H_DONORS>
0

>  <ROTATABLE_BONDS>
8

>  <LOGP>
2.8699999

>  <LOGS>
-5.2399998

>  <TPSA>
109.89

>  <PRICE>
N07

$$$$
AK-693/40962762
  MOE2011           3D

 41 44  0  0  1  0  0  0  0  0999 V2000
   -0.4110   -1.3610   -1.2070 C   0  0  2  0  0  0  0  0  0  0  0  0
    1.4980    0.3500   -0.7670 C   0  0  0  0  0  0  0  0  0  0  0  0
    1.0540   -1.0060   -1.3330 C   0  0  3  0  0  0  0  0  0  0  0  0
   -0.5850   -1.2170    0.1850 O   0  0  0  0  0  0  0  0  0  0  0  0
    0.9440    1.4840   -0.1190 C   0  0  0  0  0  0  0  0  0  0  0  0
   -1.3430   -2.2860   -0.2130 C   0  0  3  0  0  0  0  0  0  0  0  0
   -0.4670    1.8890    0.3460 C   0  0  3  0  0  0  0  0  0  0  0  0
    2.8360    0.5560   -0.9780 O   0  0  0  0  0  0  0  0  0  0  0  0
   -2.5370    1.2990   -0.4060 C   0  0  0  0  0  0  0  0  0  0  0  0
   -1.4130    2.0080   -0.7220 O   0  0  0  0  0  0  0  0  0  0  0  0
   -2.2860    0.5200    0.8100 C   0  0  0  0  0  0  0  0  0  0  0  0
   -1.1360    0.9880    1.3150 C   0  0  0  0  0  0  0  0  0  0  0  0
   -0.6300    0.5690    2.1740 H   0  0  0  0  0  0  0  0  0  0  0  0
    2.0750    2.3800    0.0680 C   0  0  0  0  0  0  0  0  0  0  0  0
    3.1710    1.7550   -0.4750 C   0  0  0  0  0  0  0  0  0  0  0  0
    4.2110    2.0310   -0.5760 H   0  0  0  0  0  0  0  0  0  0  0  0
    1.9240   -2.0960   -0.8990 O   0  0  0  0  0  0  0  0  0  0  0  0
    1.9720   -2.5880    0.3590 C   0  0  0  0  0  0  0  0  0  0  0  0
   -2.7950   -1.9710    0.1740 C   0  0  0  0  0  0  0  0  0  0  0  0
   -3.3970   -1.8140   -0.7260 H   0  0  0  0  0  0  0  0  0  0  0  0
   -3.2130   -2.8630    0.6570 H   0  0  0  0  0  0  0  0  0  0  0  0
   -3.5630    1.2670   -1.0630 O   0  0  0  0  0  0  0  0  0  0  0  0
   -3.0030   -0.7570    1.1620 C   0  0  0  0  0  0  0  0  0  0  0  0
   -2.6650   -1.0820    2.1550 H   0  0  0  0  0  0  0  0  0  0  0  0
   -4.0770   -0.5580    1.2560 H   0  0  0  0  0  0  0  0  0  0  0  0
    1.8880   -3.7940    0.5730 O   0  0  0  0  0  0  0  0  0  0  0  0
   -1.2270   -0.7420   -2.3030 C   0  0  0  0  0  0  0  0  0  0  0  0
   -1.0400   -1.2970   -3.2290 H   0  0  0  0  0  0  0  0  0  0  0  0
   -0.9380    0.2940   -2.4990 H   0  0  0  0  0  0  0  0  0  0  0  0
   -2.3040   -0.7750   -2.1490 H   0  0  0  0  0  0  0  0  0  0  0  0
    2.0800    3.7250    0.7040 C   0  0  0  0  0  0  0  0  0  0  0  0
    1.4210    4.4080    0.1600 H   0  0  0  0  0  0  0  0  0  0  0  0
    3.0850    4.1600    0.7080 H   0  0  0  0  0  0  0  0  0  0  0  0
    1.7390    3.6580    1.7420 H   0  0  0  0  0  0  0  0  0  0  0  0
    2.2590   -1.6110    1.4580 C   0  0  0  0  0  0  0  0  0  0  0  0
    1.3930   -0.9930    1.6890 H   0  0  0  0  0  0  0  0  0  0  0  0
    3.1310   -1.0050    1.2050 H   0  0  0  0  0  0  0  0  0  0  0  0
    2.5140   -2.1720    2.3640 H   0  0  0  0  0  0  0  0  0  0  0  0
    1.2710   -0.9400   -2.4080 H   0  0  0  0  0  0  0  0  0  0  0  0
   -1.0240   -3.2960    0.0000 H   0  0  0  0  0  0  0  0  0  0  0  0
   -0.4120    2.8810    0.8090 H   0  0  0  0  0  0  0  0  0  0  0  0
  1  3  1  0  0  0  0
  1  4  1  0  0  0  0
  1  6  1  0  0  0  0
  1 27  1  0  0  0  0
  2  3  1  0  0  0  0
  2  5  2  0  0  0  0
  2  8  1  0  0  0  0
  3 17  1  0  0  0  0
  3 39  1  0  0  0  0
  4  6  1  0  0  0  0
  5  7  1  0  0  0  0
  5 14  1  0  0  0  0
  6 19  1  0  0  0  0
  6 40  1  0  0  0  0
  7 10  1  0  0  0  0
  7 12  1  0  0  0  0
  7 41  1  0  0  0  0
  8 15  1  0  0  0  0
  9 10  1  0  0  0  0
  9 11  1  0  0  0  0
  9 22  2  0  0  0  0
 11 12  2  0  0  0  0
 11 23  1  0  0  0  0
 12 13  1  0  0  0  0
 14 15  2  0  0  0  0
 14 31  1  0  0  0  0
 15 16  1  0  0  0  0
 17 18  1  0  0  0  0
 18 26  2  0  0  0  0
 18 35  1  0  0  0  0
 19 20  1  0  0  0  0
 19 21  1  0  0  0  0
 19 23  1  0  0  0  0
 23 24  1  0  0  0  0
 23 25  1  0  0  0  0
 27 28  1  0  0  0  0
 27 29  1  0  0  0  0
 27 30  1  0  0  0  0
 31 32  1  0  0  0  0
 31 33  1  0  0  0  0
 31 34  1  0  0  0  0
 35 36  1  0  0  0  0
 35 37  1  0  0  0  0
 35 38  1  0  0  0  0
M  END
>  <IDNUMBER>
AK-693/40962762

>  <NAME>
Zeylanicine

>  <ADD_INFO>
http://www.specs.net/enter.php?specsid=AK-693/40962762

>  <H_ACCEPTORS>
5

>  <H_DONORS>
0

>  <ROTATABLE_BONDS>
2

>  <LOGP>
1.55

>  <LOGS>
-2.8399999

>  <TPSA>
78.269997

>  <PRICE>
N07

$$$$
AK-693/40962763
  MOE2011           3D

 84 87  0  0  1  0  0  0  0  0999 V2000
    0.7180    0.9850    0.2790 C   0  0  2  0  0  0  0  0  0  0  0  0
   -0.7920    0.8410    0.3040 C   0  0  0  0  0  0  0  0  0  0  0  0
    1.3830   -0.4020    0.6010 C   0  0  2  0  0  0  0  0  0  0  0  0
   -2.7870   -0.1420   -1.0900 C   0  0  2  0  0  0  0  0  0  0  0  0
   -1.3940   -0.4030   -0.3350 C   0  0  3  0  0  0  0  0  0  0  0  0
   -3.5680    1.1300   -0.5180 C   0  0  3  0  0  0  0  0  0  0  0  0
   -5.1480    1.1560   -0.6950 C   0  0  0  0  0  0  0  0  0  0  0  0
   -1.6240    1.6670    0.9560 C   0  0  0  0  0  0  0  0  0  0  0  0
   -1.2580    2.5360    1.4940 H   0  0  0  0  0  0  0  0  0  0  0  0
    2.8900    0.0030    0.7000 C   0  0  3  0  0  0  0  0  0  0  0  0
   -5.7450   -0.2610   -0.5750 C   0  0  0  0  0  0  0  0  0  0  0  0
   -6.8040   -0.4280    0.1630 N   0  0  0  0  0  0  0  0  0  0  0  0
   -8.4290   -1.9540    0.8900 C   0  0  0  0  0  0  0  0  0  0  0  0
    1.3860    1.8860    1.3400 C   0  0  0  0  0  0  0  0  0  0  0  0
    1.3670    2.9490    1.0740 H   0  0  0  0  0  0  0  0  0  0  0  0
    0.8950    1.8000    2.3170 H   0  0  0  0  0  0  0  0  0  0  0  0
    1.0340   -1.4210   -0.5030 C   0  0  0  0  0  0  0  0  0  0  0  0
    1.7730   -1.3670   -1.3130 H   0  0  0  0  0  0  0  0  0  0  0  0
    1.1080   -2.4440   -0.1160 H   0  0  0  0  0  0  0  0  0  0  0  0
   -3.1060    1.4420    0.9260 C   0  0  0  0  0  0  0  0  0  0  0  0
   -3.5540    2.3730    1.2870 H   0  0  0  0  0  0  0  0  0  0  0  0
   -3.3910    0.6470    1.6240 H   0  0  0  0  0  0  0  0  0  0  0  0
    8.3910   -1.4210   -0.9390 C   0  0  0  0  0  0  0  0  0  0  0  0
   -3.6220   -1.4410   -0.9050 C   0  0  0  0  0  0  0  0  0  0  0  0
   -3.1360   -2.2760   -1.4240 H   0  0  0  0  0  0  0  0  0  0  0  0
   -3.6440   -1.7100    0.1600 H   0  0  0  0  0  0  0  0  0  0  0  0
   -0.3680   -1.2540   -1.1310 C   0  0  0  0  0  0  0  0  0  0  0  0
   -0.7840   -2.2540   -1.3090 H   0  0  0  0  0  0  0  0  0  0  0  0
   -0.2130   -0.8320   -2.1280 H   0  0  0  0  0  0  0  0  0  0  0  0
    2.8310    1.3660    1.4490 C   0  0  0  0  0  0  0  0  0  0  0  0
    3.0990    1.2670    2.5060 H   0  0  0  0  0  0  0  0  0  0  0  0
    3.5320    2.0770    0.9980 H   0  0  0  0  0  0  0  0  0  0  0  0
   -7.3140   -1.6820    0.2170 N   0  5  0  0  0  0  0  0  0  0  0  0
    8.4890   -0.1010   -0.1480 C   0  0  0  0  0  0  0  0  0  0  0  0
   -9.1660   -3.4410    1.0310 S   0  0  0  0  0  0  0  0  0  0  0  0
   -5.0560   -1.3450   -1.3820 C   0  0  0  0  0  0  0  0  0  0  0  0
   -5.5320   -2.3210   -1.2620 H   0  0  0  0  0  0  0  0  0  0  0  0
   -5.1130   -1.1060   -2.4470 H   0  0  0  0  0  0  0  0  0  0  0  0
    8.1500   -2.4470   -0.2420 O   0  0  0  0  0  0  0  0  0  0  0  0
    7.3880    0.5180    0.3160 C   0  0  0  0  0  0  0  0  0  0  0  0
    7.5070    1.4440    0.8750 H   0  0  0  0  0  0  0  0  0  0  0  0
   -8.9380   -0.8420    1.4810 N   0  0  0  0  0  0  0  0  0  0  0  0
   -9.7710   -0.8060    2.0410 H   0  0  0  0  0  0  0  0  0  0  0  0
   -8.3360   -0.0430    1.2660 H   0  0  0  0  0  0  0  0  0  0  0  0
    3.9130   -0.9750    1.3400 C   0  0  3  0  0  0  0  0  0  0  0  0
    1.0870    1.6050   -1.1020 C   0  0  0  0  0  0  0  0  0  0  0  0
    2.1470    1.8680   -1.1800 H   0  0  0  0  0  0  0  0  0  0  0  0
    0.5300    2.5380   -1.2610 H   0  0  0  0  0  0  0  0  0  0  0  0
    0.8640    0.9560   -1.9490 H   0  0  0  0  0  0  0  0  0  0  0  0
    0.9280   -1.0010    1.9700 C   0  0  0  0  0  0  0  0  0  0  0  0
    1.3860   -1.9810    2.1420 H   0  0  0  0  0  0  0  0  0  0  0  0
   -0.1510   -1.1550    2.0320 H   0  0  0  0  0  0  0  0  0  0  0  0
    1.2070   -0.3720    2.8210 H   0  0  0  0  0  0  0  0  0  0  0  0
    8.5820   -1.3060   -2.1830 O   0  5  0  0  0  0  0  0  0  0  0  0
   -2.5240    0.0910   -2.5980 C   0  0  0  0  0  0  0  0  0  0  0  0
   -2.1470   -0.8120   -3.0900 H   0  0  0  0  0  0  0  0  0  0  0  0
   -1.7940    0.8950   -2.7470 H   0  0  0  0  0  0  0  0  0  0  0  0
   -3.4200    0.3690   -3.1490 H   0  0  0  0  0  0  0  0  0  0  0  0
   -5.8300    2.1120    0.3190 C   0  0  0  0  0  0  0  0  0  0  0  0
   -5.4140    3.1230    0.2520 H   0  0  0  0  0  0  0  0  0  0  0  0
   -5.7280    1.7550    1.3500 H   0  0  0  0  0  0  0  0  0  0  0  0
   -6.9070    2.1990    0.1300 H   0  0  0  0  0  0  0  0  0  0  0  0
   -5.5550    1.7030   -2.0850 C   0  0  0  0  0  0  0  0  0  0  0  0
   -5.0900    2.6750   -2.2810 H   0  0  0  0  0  0  0  0  0  0  0  0
   -6.6420    1.8400   -2.1470 H   0  0  0  0  0  0  0  0  0  0  0  0
   -5.3040    1.0350   -2.9090 H   0  0  0  0  0  0  0  0  0  0  0  0
    5.9680    0.0620    0.1200 C   0  0  0  0  0  0  0  0  0  0  0  0
    5.4090    0.9030   -0.3060 H   0  0  0  0  0  0  0  0  0  0  0  0
    5.9080   -0.7470   -0.6130 H   0  0  0  0  0  0  0  0  0  0  0  0
    9.8780    0.4160    0.0600 C   0  0  0  0  0  0  0  0  0  0  0  0
   10.4850   -0.3250    0.5890 H   0  0  0  0  0  0  0  0  0  0  0  0
    9.8880    1.3380    0.6510 H   0  0  0  0  0  0  0  0  0  0  0  0
   10.3540    0.6310   -0.9020 H   0  0  0  0  0  0  0  0  0  0  0  0
    5.3400   -0.3710    1.4500 C   0  0  0  0  0  0  0  0  0  0  0  0
    5.3200    0.4870    2.1340 H   0  0  0  0  0  0  0  0  0  0  0  0
    5.9920   -1.1120    1.9330 H   0  0  0  0  0  0  0  0  0  0  0  0
    3.9800   -2.3210    0.6090 C   0  0  0  0  0  0  0  0  0  0  0  0
    4.8240   -2.9210    0.9660 H   0  0  0  0  0  0  0  0  0  0  0  0
    4.0910   -2.1920   -0.4720 H   0  0  0  0  0  0  0  0  0  0  0  0
    3.0810   -2.9150    0.7900 H   0  0  0  0  0  0  0  0  0  0  0  0
   -1.6420   -1.0370    0.5300 H   0  0  0  0  0  0  0  0  0  0  0  0
   -3.2050    1.9930   -1.1000 H   0  0  0  0  0  0  0  0  0  0  0  0
    3.2420    0.1960   -0.3220 H   0  0  0  0  0  0  0  0  0  0  0  0
    3.6010   -1.1840    2.3710 H   0  0  0  0  0  0  0  0  0  0  0  0
  1  2  1  0  0  0  0
  1  3  1  0  0  0  0
  1 14  1  0  0  0  0
  1 46  1  0  0  0  0
  2  5  1  0  0  0  0
  2  8  2  0  0  0  0
  3 10  1  0  0  0  0
  3 17  1  0  0  0  0
  3 50  1  0  0  0  0
  4  5  1  0  0  0  0
  4  6  1  0  0  0  0
  4 24  1  0  0  0  0
  4 55  1  0  0  0  0
  5 27  1  0  0  0  0
  5 81  1  0  0  0  0
  6  7  1  0  0  0  0
  6 20  1  0  0  0  0
  6 82  1  0  0  0  0
  7 11  1  0  0  0  0
  7 59  1  0  0  0  0
  7 63  1  0  0  0  0
  8  9  1  0  0  0  0
  8 20  1  0  0  0  0
 10 30  1  0  0  0  0
 10 45  1  0  0  0  0
 10 83  1  0  0  0  0
 11 12  2  0  0  0  0
 11 36  1  0  0  0  0
 12 33  1  0  0  0  0
 13 33  1  0  0  0  0
 13 35  2  0  0  0  0
 13 42  1  0  0  0  0
 14 15  1  0  0  0  0
 14 16  1  0  0  0  0
 14 30  1  0  0  0  0
 17 18  1  0  0  0  0
 17 19  1  0  0  0  0
 17 27  1  0  0  0  0
 20 21  1  0  0  0  0
 20 22  1  0  0  0  0
 23 34  1  0  0  0  0
 23 39  2  0  0  0  0
 23 54  1  0  0  0  0
 24 25  1  0  0  0  0
 24 26  1  0  0  0  0
 24 36  1  0  0  0  0
 27 28  1  0  0  0  0
 27 29  1  0  0  0  0
 30 31  1  0  0  0  0
 30 32  1  0  0  0  0
 34 40  2  0  0  0  0
 34 70  1  0  0  0  0
 36 37  1  0  0  0  0
 36 38  1  0  0  0  0
 40 41  1  0  0  0  0
 40 67  1  0  0  0  0
 42 43  1  0  0  0  0
 42 44  1  0  0  0  0
 45 74  1  0  0  0  0
 45 77  1  0  0  0  0
 45 84  1  0  0  0  0
 46 47  1  0  0  0  0
 46 48  1  0  0  0  0
 46 49  1  0  0  0  0
 50 51  1  0  0  0  0
 50 52  1  0  0  0  0
 50 53  1  0  0  0  0
 55 56  1  0  0  0  0
 55 57  1  0  0  0  0
 55 58  1  0  0  0  0
 59 60  1  0  0  0  0
 59 61  1  0  0  0  0
 59 62  1  0  0  0  0
 63 64  1  0  0  0  0
 63 65  1  0  0  0  0
 63 66  1  0  0  0  0
 67 68  1  0  0  0  0
 67 69  1  0  0  0  0
 67 74  1  0  0  0  0
 70 71  1  0  0  0  0
 70 72  1  0  0  0  0
 70 73  1  0  0  0  0
 74 75  1  0  0  0  0
 74 76  1  0  0  0  0
 77 78  1  0  0  0  0
 77 79  1  0  0  0  0
 77 80  1  0  0  0  0
M  CHG  1  33  -1
M  CHG  1  54  -1
M  END
>  <IDNUMBER>
AK-693/40962763

>  <NAME>
3-[(aminocarbothioyl)hydrazono]lanosta-7,24-dien-26-oic acid

>  <ADD_INFO>
http://www.specs.net/enter.php?specsid=AK-693/40962763

>  <H_ACCEPTORS>
5

>  <H_DONORS>
3

>  <ROTATABLE_BONDS>
7

>  <LOGP>
10.39

>  <LOGS>
-11.52

>  <TPSA>
119.8

>  <PRICE>
N07

$$$$
AK-693/41507038
  MOE2011           3D

 45 47  0  0  1  0  0  0  0  0999 V2000
    2.2040    0.7640   -0.0610 C   0  0  2  0  0  0  0  0  0  0  0  0
    1.7760    1.3480    1.1580 O   0  0  0  0  0  0  0  0  0  0  0  0
    1.8820    2.2720    0.0550 C   0  0  2  0  0  0  0  0  0  0  0  0
    1.3330   -0.2750   -0.6880 C   0  0  3  0  0  0  0  0  0  0  0  0
    0.5670   -1.2490    0.2010 C   0  0  3  0  0  0  0  0  0  0  0  0
   -1.7830    0.6650   -0.1180 C   0  0  0  0  0  0  0  0  0  0  0  0
    2.2030   -1.1590   -1.4390 O   0  0  0  0  0  0  0  0  0  0  0  0
    2.4670   -2.2860   -0.7120 C   0  0  0  0  0  0  0  0  0  0  0  0
   -0.2460   -0.7530    1.4070 C   0  0  3  0  0  0  0  0  0  0  0  0
   -1.1370    0.5050    1.2350 C   0  0  3  0  0  0  0  0  0  0  0  0
    1.6620   -2.2640    0.5620 C   0  0  3  0  0  0  0  0  0  0  0  0
   -2.9610   -0.2230   -0.3350 C   0  0  0  0  0  0  0  0  0  0  0  0
   -1.4450    1.5080   -1.1180 C   0  0  0  0  0  0  0  0  0  0  0  0
   -2.0670    1.4690   -2.0180 H   0  0  0  0  0  0  0  0  0  0  0  0
    3.2600   -3.1480   -1.0550 O   0  0  0  0  0  0  0  0  0  0  0  0
   -3.7560   -0.4560    0.5690 O   0  0  0  0  0  0  0  0  0  0  0  0
   -1.1040   -1.8370    1.8130 O   0  0  0  0  0  0  0  0  0  0  0  0
   -1.6920   -1.4490    2.4940 H   0  0  0  0  0  0  0  0  0  0  0  0
    0.5620    3.0000   -0.1710 C   0  0  0  0  0  0  0  0  0  0  0  0
    0.0120    3.1350    0.7650 H   0  0  0  0  0  0  0  0  0  0  0  0
    0.8350    4.0310   -0.4420 H   0  0  0  0  0  0  0  0  0  0  0  0
   -2.1110    0.4880    2.3040 O   0  0  0  0  0  0  0  0  0  0  0  0
   -2.9810    0.2280    1.9250 H   0  0  0  0  0  0  0  0  0  0  0  0
    3.0690    3.1950    0.2000 C   0  0  0  0  0  0  0  0  0  0  0  0
    3.2570    3.7150   -0.7440 H   0  0  0  0  0  0  0  0  0  0  0  0
    3.9810    2.6530    0.4700 H   0  0  0  0  0  0  0  0  0  0  0  0
    2.8820    3.9420    0.9790 H   0  0  0  0  0  0  0  0  0  0  0  0
   -2.9750   -0.7430   -1.5850 O   0  0  0  0  0  0  0  0  0  0  0  0
   -0.3460    2.5310   -1.3050 C   0  0  0  0  0  0  0  0  0  0  0  0
    0.2710    2.2230   -2.1580 H   0  0  0  0  0  0  0  0  0  0  0  0
   -0.8760    3.4310   -1.6520 H   0  0  0  0  0  0  0  0  0  0  0  0
    1.1590   -3.6540    0.9200 C   0  0  0  0  0  0  0  0  0  0  0  0
    0.6400   -3.6550    1.8820 H   0  0  0  0  0  0  0  0  0  0  0  0
    1.9930   -4.3600    1.0000 H   0  0  0  0  0  0  0  0  0  0  0  0
    0.4770   -4.0440    0.1560 H   0  0  0  0  0  0  0  0  0  0  0  0
   -4.0480   -1.6550   -1.8270 C   0  0  0  0  0  0  0  0  0  0  0  0
   -3.9580   -2.0190   -2.8540 H   0  0  0  0  0  0  0  0  0  0  0  0
   -5.0110   -1.1460   -1.7210 H   0  0  0  0  0  0  0  0  0  0  0  0
   -3.9840   -2.5100   -1.1480 H   0  0  0  0  0  0  0  0  0  0  0  0
    3.2540    0.4940   -0.1250 H   0  0  0  0  0  0  0  0  0  0  0  0
    0.6830    0.1580   -1.4420 H   0  0  0  0  0  0  0  0  0  0  0  0
   -0.1350   -1.7830   -0.4610 H   0  0  0  0  0  0  0  0  0  0  0  0
    0.4180   -0.5850    2.2630 H   0  0  0  0  0  0  0  0  0  0  0  0
   -0.5390    1.3760    1.4630 H   0  0  0  0  0  0  0  0  0  0  0  0
    2.3100   -1.8790    1.3580 H   0  0  0  0  0  0  0  0  0  0  0  0
  1  2  1  0  0  0  0
  1  3  1  0  0  0  0
  1  4  1  0  0  0  0
  1 40  1  0  0  0  0
  2  3  1  0  0  0  0
  3 19  1  0  0  0  0
  3 24  1  0  0  0  0
  4  5  1  0  0  0  0
  4  7  1  0  0  0  0
  4 41  1  0  0  0  0
  5  9  1  0  0  0  0
  5 11  1  0  0  0  0
  5 42  1  0  0  0  0
  6 10  1  0  0  0  0
  6 12  1  0  0  0  0
  6 13  2  0  0  0  0
  7  8  1  0  0  0  0
  8 11  1  0  0  0  0
  8 15  2  0  0  0  0
  9 10  1  0  0  0  0
  9 17  1  0  0  0  0
  9 43  1  0  0  0  0
 10 22  1  0  0  0  0
 10 44  1  0  0  0  0
 11 32  1  0  0  0  0
 11 45  1  0  0  0  0
 12 16  2  0  0  0  0
 12 28  1  0  0  0  0
 13 14  1  0  0  0  0
 13 29  1  0  0  0  0
 17 18  1  0  0  0  0
 19 20  1  0  0  0  0
 19 21  1  0  0  0  0
 19 29  1  0  0  0  0
 22 23  1  0  0  0  0
 24 25  1  0  0  0  0
 24 26  1  0  0  0  0
 24 27  1  0  0  0  0
 28 36  1  0  0  0  0
 29 30  1  0  0  0  0
 29 31  1  0  0  0  0
 32 33  1  0  0  0  0
 32 34  1  0  0  0  0
 32 35  1  0  0  0  0
 36 37  1  0  0  0  0
 36 38  1  0  0  0  0
 36 39  1  0  0  0  0
M  END
>  <IDNUMBER>
AK-693/41507038

>  <NAME>
methyl 6,7-dihydroxy-1a,8-dimethyl-9-oxo-1a,2,3,6,7,7a,8,9,10a,10b-decahydrooxireno[2',3':9,10]cyclodeca[1,2-b]furan-5-carboxylate

>  <ADD_INFO>
http://www.specs.net/enter.php?specsid=AK-693/41507038

>  <H_ACCEPTORS>
7

>  <H_DONORS>
2

>  <ROTATABLE_BONDS>
2

>  <LOGP>
-0.91000003

>  <LOGS>
-0.80000001

>  <TPSA>
105.59

>  <PRICE>
N07

$$$$
AK-693/41507039
  MOE2011           3D

 33 35  0  0  1  0  0  0  0  0999 V2000
    1.0460   -0.5440   -0.4170 C   0  0  3  0  0  0  0  0  0  0  0  0
    1.8450   -1.2830    0.5260 O   0  0  0  0  0  0  0  0  0  0  0  0
   -0.4550   -0.5400   -0.2050 C   0  0  0  0  0  0  0  0  0  0  0  0
    1.9810    0.1420    0.5720 C   0  0  3  0  0  0  0  0  0  0  0  0
   -1.1810    0.6620   -0.0860 C   0  0  0  0  0  0  0  0  0  0  0  0
   -0.4530    1.8750   -0.1730 O   0  0  0  0  0  0  0  0  0  0  0  0
   -1.0630    3.1160   -0.0650 C   0  0  0  0  0  0  0  0  0  0  0  0
    3.1750    0.8400    0.0520 C   0  0  0  0  0  0  0  0  0  0  0  0
   -2.5640    0.7060    0.1010 C   0  0  0  0  0  0  0  0  0  0  0  0
   -3.2310    1.9930    0.2170 C   0  0  0  0  0  0  0  0  0  0  0  0
   -4.3050    2.0200    0.3670 H   0  0  0  0  0  0  0  0  0  0  0  0
   -1.2030   -1.7380   -0.1510 C   0  0  0  0  0  0  0  0  0  0  0  0
   -2.5200    3.1210    0.1390 C   0  0  0  0  0  0  0  0  0  0  0  0
   -2.9890    4.0950    0.2220 H   0  0  0  0  0  0  0  0  0  0  0  0
   -0.4290    4.1630   -0.1350 O   0  0  0  0  0  0  0  0  0  0  0  0
   -3.2700   -0.4910    0.1650 C   0  0  0  0  0  0  0  0  0  0  0  0
   -4.3480   -0.4970    0.3060 H   0  0  0  0  0  0  0  0  0  0  0  0
   -2.5940   -1.7070    0.0340 C   0  0  0  0  0  0  0  0  0  0  0  0
   -3.1850   -2.6170    0.0710 H   0  0  0  0  0  0  0  0  0  0  0  0
    3.1370    2.0670   -0.4950 C   0  0  0  0  0  0  0  0  0  0  0  0
    2.2030    2.6130   -0.5890 H   0  0  0  0  0  0  0  0  0  0  0  0
    4.0330    2.5590   -0.8580 H   0  0  0  0  0  0  0  0  0  0  0  0
   -0.4770   -2.8930   -0.3190 O   0  0  0  0  0  0  0  0  0  0  0  0
    4.4830    0.1060    0.1930 C   0  0  0  0  0  0  0  0  0  0  0  0
    4.6560   -0.1640    1.2400 H   0  0  0  0  0  0  0  0  0  0  0  0
    5.3350    0.7100   -0.1390 H   0  0  0  0  0  0  0  0  0  0  0  0
    4.4720   -0.8100   -0.4060 H   0  0  0  0  0  0  0  0  0  0  0  0
   -1.1410   -4.1270   -0.0820 C   0  0  0  0  0  0  0  0  0  0  0  0
   -0.3980   -4.9260   -0.1570 H   0  0  0  0  0  0  0  0  0  0  0  0
   -1.9060   -4.3120   -0.8430 H   0  0  0  0  0  0  0  0  0  0  0  0
   -1.5680   -4.1630    0.9270 H   0  0  0  0  0  0  0  0  0  0  0  0
    1.3680   -0.5980   -1.4530 H   0  0  0  0  0  0  0  0  0  0  0  0
    1.5460    0.6260    1.4410 H   0  0  0  0  0  0  0  0  0  0  0  0
  1  2  1  0  0  0  0
  1  3  1  0  0  0  0
  1  4  1  0  0  0  0
  1 32  1  0  0  0  0
  2  4  1  0  0  0  0
  3  5  2  0  0  0  0
  3 12  1  0  0  0  0
  4  8  1  0  0  0  0
  4 33  1  0  0  0  0
  5  6  1  0  0  0  0
  5  9  1  0  0  0  0
  6  7  1  0  0  0  0
  7 13  1  0  0  0  0
  7 15  2  0  0  0  0
  8 20  2  0  0  0  0
  8 24  1  0  0  0  0
  9 10  1  0  0  0  0
  9 16  2  0  0  0  0
 10 11  1  0  0  0  0
 10 13  2  0  0  0  0
 12 18  2  0  0  0  0
 12 23  1  0  0  0  0
 13 14  1  0  0  0  0
 16 17  1  0  0  0  0
 16 18  1  0  0  0  0
 18 19  1  0  0  0  0
 20 21  1  0  0  0  0
 20 22  1  0  0  0  0
 23 28  1  0  0  0  0
 24 25  1  0  0  0  0
 24 26  1  0  0  0  0
 24 27  1  0  0  0  0
 28 29  1  0  0  0  0
 28 30  1  0  0  0  0
 28 31  1  0  0  0  0
M  END
>  <IDNUMBER>
AK-693/41507039

>  <NAME>
8-(3-isopropenyl-2-oxiranyl)-7-methoxy-2H-chromen-2-one

>  <ADD_INFO>
http://www.specs.net/enter.php?specsid=AK-693/41507039

>  <H_ACCEPTORS>
2

>  <H_DONORS>
0

>  <ROTATABLE_BONDS>
3

>  <LOGP>
2.51

>  <LOGS>
-3.23

>  <TPSA>
48.060001

>  <PRICE>
N07

$$$$
AK-693/41507040
  MOE2011           3D

 29 29  0  0  0  0  0  0  0  0999 V2000
    1.7800    1.1700   -0.0470 C   0  0  0  0  0  0  0  0  0  0  0  0
    1.4420    1.7530   -0.8950 H   0  0  0  0  0  0  0  0  0  0  0  0
    3.2150    1.2910    0.2650 C   0  0  0  0  0  0  0  0  0  0  0  0
    0.9560    0.4640    0.7420 C   0  0  0  0  0  0  0  0  0  0  0  0
    1.3550   -0.0640    1.6070 H   0  0  0  0  0  0  0  0  0  0  0  0
    3.7280    2.3960    0.3930 O   0  0  0  0  0  0  0  0  0  0  0  0
   -0.4940    0.3200    0.5260 C   0  0  0  0  0  0  0  0  0  0  0  0
   -3.2820   -0.0260    0.2010 C   0  0  0  0  0  0  0  0  0  0  0  0
    3.9220    0.1420    0.4030 O   0  0  0  0  0  0  0  0  0  0  0  0
   -1.1320   -0.8350    0.9970 C   0  0  0  0  0  0  0  0  0  0  0  0
   -0.5660   -1.6200    1.4920 H   0  0  0  0  0  0  0  0  0  0  0  0
   -1.2750    1.3080   -0.0870 C   0  0  0  0  0  0  0  0  0  0  0  0
   -0.8290    2.2350   -0.4360 H   0  0  0  0  0  0  0  0  0  0  0  0
   -2.6570    1.1350   -0.2540 C   0  0  0  0  0  0  0  0  0  0  0  0
   -3.2140    1.9310   -0.7380 H   0  0  0  0  0  0  0  0  0  0  0  0
   -2.5110   -1.0050    0.8310 C   0  0  0  0  0  0  0  0  0  0  0  0
   -2.9880   -1.9120    1.1960 H   0  0  0  0  0  0  0  0  0  0  0  0
   -4.6150   -0.3190    0.1010 O   0  0  0  0  0  0  0  0  0  0  0  0
    3.5400   -1.0640   -0.2910 C   0  0  0  0  0  0  0  0  0  0  0  0
    2.8600   -1.6390    0.3440 H   0  0  0  0  0  0  0  0  0  0  0  0
    3.0570   -0.8290   -1.2450 H   0  0  0  0  0  0  0  0  0  0  0  0
   -5.4360    0.6380   -0.5580 C   0  0  0  0  0  0  0  0  0  0  0  0
   -6.4580    0.2480   -0.5720 H   0  0  0  0  0  0  0  0  0  0  0  0
   -5.1200    0.7810   -1.5970 H   0  0  0  0  0  0  0  0  0  0  0  0
   -5.4490    1.5880   -0.0130 H   0  0  0  0  0  0  0  0  0  0  0  0
    4.7980   -1.8720   -0.5460 C   0  0  0  0  0  0  0  0  0  0  0  0
    5.3070   -2.1030    0.3960 H   0  0  0  0  0  0  0  0  0  0  0  0
    5.5050   -1.3020   -1.1580 H   0  0  0  0  0  0  0  0  0  0  0  0
    4.5620   -2.8090   -1.0580 H   0  0  0  0  0  0  0  0  0  0  0  0
  1  2  1  0  0  0  0
  1  3  1  0  0  0  0
  1  4  2  0  0  0  0
  3  6  2  0  0  0  0
  3  9  1  0  0  0  0
  4  5  1  0  0  0  0
  4  7  1  0  0  0  0
  7 10  1  0  0  0  0
  7 12  2  0  0  0  0
  8 14  2  0  0  0  0
  8 16  1  0  0  0  0
  8 18  1  0  0  0  0
  9 19  1  0  0  0  0
 10 11  1  0  0  0  0
 10 16  2  0  0  0  0
 12 13  1  0  0  0  0
 12 14  1  0  0  0  0
 14 15  1  0  0  0  0
 16 17  1  0  0  0  0
 18 22  1  0  0  0  0
 19 20  1  0  0  0  0
 19 21  1  0  0  0  0
 19 26  1  0  0  0  0
 22 23  1  0  0  0  0
 22 24  1  0  0  0  0
 22 25  1  0  0  0  0
 26 27  1  0  0  0  0
 26 28  1  0  0  0  0
 26 29  1  0  0  0  0
M  END
>  <IDNUMBER>
AK-693/41507040

>  <NAME>
ethyl 3-(4-methoxyphenyl)acrylate

>  <ADD_INFO>
http://www.specs.net/enter.php?specsid=AK-693/41507040

>  <H_ACCEPTORS>
2

>  <H_DONORS>
0

>  <ROTATABLE_BONDS>
5

>  <LOGP>
2.9300001

>  <LOGS>
-3.21

>  <TPSA>
35.529999

>  <PRICE>
N07

$$$$
AK-693/41507053
  MOE2011           3D

 31 33  0  0  0  0  0  0  0  0999 V2000
   -0.9920    1.3640   -0.0050 N   0  0  0  0  0  0  0  0  0  0  0  0
    0.1420    0.5410   -0.0010 C   0  0  0  0  0  0  0  0  0  0  0  0
   -0.3100   -0.7820   -0.0030 C   0  0  0  0  0  0  0  0  0  0  0  0
   -2.1410    0.5690    0.0000 C   0  0  0  0  0  0  0  0  0  0  0  0
   -1.7340   -0.7650   -0.0010 C   0  0  0  0  0  0  0  0  0  0  0  0
    1.5250    0.8480    0.0030 C   0  0  0  0  0  0  0  0  0  0  0  0
   -0.9590    2.7720   -0.0110 C   0  0  0  0  0  0  0  0  0  0  0  0
   -0.0090    3.3190   -0.0170 H   0  0  0  0  0  0  0  0  0  0  0  0
    0.6280   -1.8370   -0.0050 C   0  0  0  0  0  0  0  0  0  0  0  0
    0.2760   -2.8660   -0.0050 H   0  0  0  0  0  0  0  0  0  0  0  0
    2.4270   -0.2320    0.0010 C   0  0  0  0  0  0  0  0  0  0  0  0
    3.5000   -0.0570    0.0040 H   0  0  0  0  0  0  0  0  0  0  0  0
    1.9970   -1.5610   -0.0060 C   0  0  0  0  0  0  0  0  0  0  0  0
   -2.0120    3.4050   -0.0120 O   0  0  0  0  0  0  0  0  0  0  0  0
    1.9130    2.1620    0.0110 O   0  0  0  0  0  0  0  0  0  0  0  0
   -3.5100    0.9070    0.0020 C   0  0  0  0  0  0  0  0  0  0  0  0
   -3.8420    1.9420    0.0030 H   0  0  0  0  0  0  0  0  0  0  0  0
   -2.7130   -1.7850    0.0010 C   0  0  0  0  0  0  0  0  0  0  0  0
   -2.4160   -2.8300    0.0010 H   0  0  0  0  0  0  0  0  0  0  0  0
    3.0040   -2.6740   -0.0060 C   0  0  0  0  0  0  0  0  0  0  0  0
    2.5200   -3.6540   -0.0680 H   0  0  0  0  0  0  0  0  0  0  0  0
    3.5940   -2.6470    0.9160 H   0  0  0  0  0  0  0  0  0  0  0  0
    3.6740   -2.5770   -0.8660 H   0  0  0  0  0  0  0  0  0  0  0  0
    3.3070    2.4480    0.0090 C   0  0  0  0  0  0  0  0  0  0  0  0
    3.4230    3.5370    0.0120 H   0  0  0  0  0  0  0  0  0  0  0  0
    3.7880    2.0650   -0.8970 H   0  0  0  0  0  0  0  0  0  0  0  0
    3.7900    2.0610    0.9120 H   0  0  0  0  0  0  0  0  0  0  0  0
   -4.0690   -1.4500    0.0050 C   0  0  0  0  0  0  0  0  0  0  0  0
   -4.8200   -2.2370    0.0080 H   0  0  0  0  0  0  0  0  0  0  0  0
   -4.4610   -0.1190    0.0060 C   0  0  0  0  0  0  0  0  0  0  0  0
   -5.5190    0.1330    0.0090 H   0  0  0  0  0  0  0  0  0  0  0  0
  1  2  1  0  0  0  0
  1  4  1  0  0  0  0
  1  7  1  0  0  0  0
  2  3  2  0  0  0  0
  2  6  1  0  0  0  0
  3  5  1  0  0  0  0
  3  9  1  0  0  0  0
  4  5  2  0  0  0  0
  4 16  1  0  0  0  0
  5 18  1  0  0  0  0
  6 11  2  0  0  0  0
  6 15  1  0  0  0  0
  7  8  1  0  0  0  0
  7 14  2  0  0  0  0
  9 10  1  0  0  0  0
  9 13  2  0  0  0  0
 11 12  1  0  0  0  0
 11 13  1  0  0  0  0
 13 20  1  0  0  0  0
 15 24  1  0  0  0  0
 16 17  1  0  0  0  0
 16 30  2  0  0  0  0
 18 19  1  0  0  0  0
 18 28  2  0  0  0  0
 20 21  1  0  0  0  0
 20 22  1  0  0  0  0
 20 23  1  0  0  0  0
 24 25  1  0  0  0  0
 24 26  1  0  0  0  0
 24 27  1  0  0  0  0
 28 29  1  0  0  0  0
 28 30  1  0  0  0  0
 30 31  1  0  0  0  0
M  END
>  <IDNUMBER>
AK-693/41507053

>  <NAME>
1-methoxy-3-methyl-9H-carbazole-9-carbaldehyde

>  <ADD_INFO>
http://www.specs.net/enter.php?specsid=AK-693/41507053

>  <H_ACCEPTORS>
2

>  <H_DONORS>
0

>  <ROTATABLE_BONDS>
2

>  <LOGP>
2.54

>  <LOGS>
-4.2199998

>  <TPSA>
29.540001

>  <PRICE>
N07

$$$$
AK-693/41507061
  MOE2011           3D

 43 47  0  0  0  0  0  0  0  0999 V2000
    1.6020   -0.0160   -0.0660 C   0  0  0  0  0  0  0  0  0  0  0  0
    0.9550   -1.2190   -0.0570 C   0  0  0  0  0  0  0  0  0  0  0  0
    0.7500    1.0300   -0.0760 O   0  0  0  0  0  0  0  0  0  0  0  0
   -0.4280   -0.9170   -0.0550 C   0  0  0  0  0  0  0  0  0  0  0  0
   -0.5030    0.4780   -0.0680 C   0  0  0  0  0  0  0  0  0  0  0  0
    3.0270    0.1320   -0.0500 C   0  0  0  0  0  0  0  0  0  0  0  0
    3.7530   -1.0700    0.0000 C   0  0  0  0  0  0  0  0  0  0  0  0
   -2.8790    0.4380   -0.0480 C   0  0  0  0  0  0  0  0  0  0  0  0
   -1.6980    1.1900   -0.0680 C   0  0  0  0  0  0  0  0  0  0  0  0
   -1.7110    2.2730   -0.0780 H   0  0  0  0  0  0  0  0  0  0  0  0
   -4.0330    1.1730   -0.0460 O   0  0  0  0  0  0  0  0  0  0  0  0
   -1.6260   -1.6540   -0.0430 C   0  0  0  0  0  0  0  0  0  0  0  0
   -1.5970   -2.7400   -0.0330 H   0  0  0  0  0  0  0  0  0  0  0  0
    3.1810   -2.3250    0.0350 O   0  0  0  0  0  0  0  0  0  0  0  0
    1.7330   -2.4760   -0.0500 C   0  0  0  0  0  0  0  0  0  0  0  0
    1.5290   -3.0450   -0.9640 H   0  0  0  0  0  0  0  0  0  0  0  0
    1.4330   -3.0960    0.8010 H   0  0  0  0  0  0  0  0  0  0  0  0
   -2.8520   -0.9620   -0.0360 C   0  0  0  0  0  0  0  0  0  0  0  0
   -4.1020   -1.7070   -0.0160 C   0  0  0  0  0  0  0  0  0  0  0  0
   -4.0890   -2.7910   -0.0210 H   0  0  0  0  0  0  0  0  0  0  0  0
   -5.3020    0.4920    0.0330 C   0  0  0  0  0  0  0  0  0  0  0  0
    3.6920    1.3560   -0.0740 C   0  0  0  0  0  0  0  0  0  0  0  0
    3.1340    2.2880   -0.1130 H   0  0  0  0  0  0  0  0  0  0  0  0
    5.1480   -1.0300    0.0320 C   0  0  0  0  0  0  0  0  0  0  0  0
    5.7140   -1.9570    0.0740 H   0  0  0  0  0  0  0  0  0  0  0  0
   -5.2440   -1.0170    0.0170 C   0  0  0  0  0  0  0  0  0  0  0  0
   -6.1870   -1.5590    0.0400 H   0  0  0  0  0  0  0  0  0  0  0  0
    5.8230    0.1960    0.0110 C   0  0  0  0  0  0  0  0  0  0  0  0
    5.0910    1.3870   -0.0430 C   0  0  0  0  0  0  0  0  0  0  0  0
    5.5780    2.3560   -0.0620 H   0  0  0  0  0  0  0  0  0  0  0  0
    7.1880    0.0950    0.0490 O   0  0  0  0  0  0  0  0  0  0  0  0
   -6.1230    0.9780   -1.1680 C   0  0  0  0  0  0  0  0  0  0  0  0
   -7.1400    0.5710   -1.1630 H   0  0  0  0  0  0  0  0  0  0  0  0
   -5.6410    0.6920   -2.1110 H   0  0  0  0  0  0  0  0  0  0  0  0
   -6.1910    2.0730   -1.1770 H   0  0  0  0  0  0  0  0  0  0  0  0
   -5.9660    0.9600    1.3340 C   0  0  0  0  0  0  0  0  0  0  0  0
   -6.9770    0.5530    1.4480 H   0  0  0  0  0  0  0  0  0  0  0  0
   -6.0280    2.0540    1.3700 H   0  0  0  0  0  0  0  0  0  0  0  0
   -5.3740    0.6560    2.2060 H   0  0  0  0  0  0  0  0  0  0  0  0
    7.9240    1.3110    0.0570 C   0  0  0  0  0  0  0  0  0  0  0  0
    8.9880    1.0580    0.1000 H   0  0  0  0  0  0  0  0  0  0  0  0
    7.6890    1.9100    0.9430 H   0  0  0  0  0  0  0  0  0  0  0  0
    7.7550    1.8810   -0.8630 H   0  0  0  0  0  0  0  0  0  0  0  0
  1  2  2  0  0  0  0
  1  3  1  0  0  0  0
  1  6  1  0  0  0  0
  2  4  1  0  0  0  0
  2 15  1  0  0  0  0
  3  5  1  0  0  0  0
  4  5  1  0  0  0  0
  4 12  2  0  0  0  0
  5  9  2  0  0  0  0
  6  7  2  0  0  0  0
  6 22  1  0  0  0  0
  7 14  1  0  0  0  0
  7 24  1  0  0  0  0
  8  9  1  0  0  0  0
  8 11  1  0  0  0  0
  8 18  2  0  0  0  0
  9 10  1  0  0  0  0
 11 21  1  0  0  0  0
 12 13  1  0  0  0  0
 12 18  1  0  0  0  0
 14 15  1  0  0  0  0
 15 16  1  0  0  0  0
 15 17  1  0  0  0  0
 18 19  1  0  0  0  0
 19 20  1  0  0  0  0
 19 26  2  0  0  0  0
 21 26  1  0  0  0  0
 21 32  1  0  0  0  0
 21 36  1  0  0  0  0
 22 23  1  0  0  0  0
 22 29  2  0  0  0  0
 24 25  1  0  0  0  0
 24 28  2  0  0  0  0
 26 27  1  0  0  0  0
 28 29  1  0  0  0  0
 28 31  1  0  0  0  0
 29 30  1  0  0  0  0
 31 40  1  0  0  0  0
 32 33  1  0  0  0  0
 32 34  1  0  0  0  0
 32 35  1  0  0  0  0
 36 37  1  0  0  0  0
 36 38  1  0  0  0  0
 36 39  1  0  0  0  0
 40 41  1  0  0  0  0
 40 42  1  0  0  0  0
 40 43  1  0  0  0  0
M  END
>  <IDNUMBER>
AK-693/41507061

>  <NAME>
10,10-dimethyl-6H,10H-chromeno[6',7':4,5]furo[3,2-c]chromen-3-yl methyl ether

>  <ADD_INFO>
http://www.specs.net/enter.php?specsid=AK-693/41507061

>  <H_ACCEPTORS>
0

>  <H_DONORS>
0

>  <ROTATABLE_BONDS>
1

>  <LOGP>
6.0700002

>  <LOGS>
-7.9299998

>  <TPSA>
40.830002

>  <PRICE>
N07

$$$$
AK-693/42119005
  MOE2011           3D

 44 45  0  0  0  0  0  0  0  0999 V2000
   -6.2150   -1.3290   -0.4210 O   0  0  0  0  0  0  0  0  0  0  0  0
   -5.1250   -0.4720   -0.1730 C   0  0  0  0  0  0  0  0  0  0  0  0
   -7.5210   -0.8570   -0.3840 C   0  0  0  0  0  0  0  0  0  0  0  0
   -6.6810    1.3900    0.1710 C   0  0  0  0  0  0  0  0  0  0  0  0
   -6.8400    2.4380    0.4020 H   0  0  0  0  0  0  0  0  0  0  0  0
   -7.7090    0.5710   -0.0690 C   0  0  0  0  0  0  0  0  0  0  0  0
   -8.7330    0.9220   -0.0400 H   0  0  0  0  0  0  0  0  0  0  0  0
   -5.3230    0.8730    0.1210 C   0  0  0  0  0  0  0  0  0  0  0  0
   -3.8490   -1.0270   -0.2360 C   0  0  0  0  0  0  0  0  0  0  0  0
   -3.7210   -2.0800   -0.4670 H   0  0  0  0  0  0  0  0  0  0  0  0
   -8.4850   -1.5830   -0.6010 O   0  0  0  0  0  0  0  0  0  0  0  0
    1.9120   -1.1610    0.6820 C   0  0  0  0  0  0  0  0  0  0  0  0
    4.9600    0.6780   -0.5980 C   0  0  0  0  0  0  0  0  0  0  0  0
    0.8210   -1.0060   -0.0950 C   0  0  0  0  0  0  0  0  0  0  0  0
    0.7490   -1.6050   -1.0020 H   0  0  0  0  0  0  0  0  0  0  0  0
    4.9140   -0.6260   -0.2600 C   0  0  0  0  0  0  0  0  0  0  0  0
    5.6490   -0.9980    0.4540 H   0  0  0  0  0  0  0  0  0  0  0  0
   -4.2090    1.6790    0.3560 C   0  0  0  0  0  0  0  0  0  0  0  0
   -4.3270    2.7350    0.5890 H   0  0  0  0  0  0  0  0  0  0  0  0
   -2.7340   -0.2200   -0.0020 C   0  0  0  0  0  0  0  0  0  0  0  0
   -2.9180    1.1350    0.2940 C   0  0  0  0  0  0  0  0  0  0  0  0
   -2.0800    1.7980    0.4840 H   0  0  0  0  0  0  0  0  0  0  0  0
   -0.3520   -0.0950    0.1170 C   0  0  0  0  0  0  0  0  0  0  0  0
   -0.2980    0.7100   -0.6250 H   0  0  0  0  0  0  0  0  0  0  0  0
   -0.3690    0.3230    1.1270 H   0  0  0  0  0  0  0  0  0  0  0  0
    3.9660   -1.6790   -0.7650 C   0  0  0  0  0  0  0  0  0  0  0  0
    3.4270   -1.3560   -1.6610 H   0  0  0  0  0  0  0  0  0  0  0  0
    4.5760   -2.5330   -1.0880 H   0  0  0  0  0  0  0  0  0  0  0  0
   -1.5340   -0.8710   -0.0920 O   0  0  0  0  0  0  0  0  0  0  0  0
    2.9750   -2.1760    0.2980 C   0  0  0  0  0  0  0  0  0  0  0  0
    3.5140   -2.5100    1.1940 H   0  0  0  0  0  0  0  0  0  0  0  0
    2.4790   -3.0760   -0.0910 H   0  0  0  0  0  0  0  0  0  0  0  0
    4.0170    1.3620   -1.5480 C   0  0  0  0  0  0  0  0  0  0  0  0
    4.5630    1.7210   -2.4270 H   0  0  0  0  0  0  0  0  0  0  0  0
    3.5500    2.2220   -1.0570 H   0  0  0  0  0  0  0  0  0  0  0  0
    3.2070    0.7200   -1.9000 H   0  0  0  0  0  0  0  0  0  0  0  0
    6.0040    1.5860   -0.0030 C   0  0  0  0  0  0  0  0  0  0  0  0
    6.6190    2.0250   -0.7950 H   0  0  0  0  0  0  0  0  0  0  0  0
    6.6730    1.0580    0.6840 H   0  0  0  0  0  0  0  0  0  0  0  0
    5.5260    2.3970    0.5570 H   0  0  0  0  0  0  0  0  0  0  0  0
    2.1720   -0.4150    1.9620 C   0  0  0  0  0  0  0  0  0  0  0  0
    2.1270   -1.1040    2.8120 H   0  0  0  0  0  0  0  0  0  0  0  0
    1.4590    0.3920    2.1470 H   0  0  0  0  0  0  0  0  0  0  0  0
    3.1650    0.0440    1.9470 H   0  0  0  0  0  0  0  0  0  0  0  0
  1  2  1  0  0  0  0
  1  3  1  0  0  0  0
  2  8  2  0  0  0  0
  2  9  1  0  0  0  0
  3  6  1  0  0  0  0
  3 11  2  0  0  0  0
  4  5  1  0  0  0  0
  4  6  2  0  0  0  0
  4  8  1  0  0  0  0
  6  7  1  0  0  0  0
  8 18  1  0  0  0  0
  9 10  1  0  0  0  0
  9 20  2  0  0  0  0
 12 14  2  0  0  0  0
 12 30  1  0  0  0  0
 12 41  1  0  0  0  0
 13 16  2  0  0  0  0
 13 33  1  0  0  0  0
 13 37  1  0  0  0  0
 14 15  1  0  0  0  0
 14 23  1  0  0  0  0
 16 17  1  0  0  0  0
 16 26  1  0  0  0  0
 18 19  1  0  0  0  0
 18 21  2  0  0  0  0
 20 21  1  0  0  0  0
 20 29  1  0  0  0  0
 21 22  1  0  0  0  0
 23 24  1  0  0  0  0
 23 25  1  0  0  0  0
 23 29  1  0  0  0  0
 26 27  1  0  0  0  0
 26 28  1  0  0  0  0
 26 30  1  0  0  0  0
 30 31  1  0  0  0  0
 30 32  1  0  0  0  0
 33 34  1  0  0  0  0
 33 35  1  0  0  0  0
 33 36  1  0  0  0  0
 37 38  1  0  0  0  0
 37 39  1  0  0  0  0
 37 40  1  0  0  0  0
 41 42  1  0  0  0  0
 41 43  1  0  0  0  0
 41 44  1  0  0  0  0
M  END
>  <IDNUMBER>
AK-693/42119005

>  <NAME>
7-[(3,7-dimethyl-2,6-octadienyl)oxy]-2H-chromen-2-one

>  <ADD_INFO>
http://www.specs.net/enter.php?specsid=AK-693/42119005

>  <H_ACCEPTORS>
1

>  <H_DONORS>
0

>  <ROTATABLE_BONDS>
6

>  <LOGP>
5.6999998

>  <LOGS>
-6.2399998

>  <TPSA>
35.529999

>  <PRICE>
N07

$$$$
AK-693/43417378
  MOE2011           3D

 57 61  0  0  1  0  0  0  0  0999 V2000
    1.4720    0.2540    1.0070 C   0  0  0  0  0  0  0  0  0  0  0  0
    2.4800   -0.4790    0.4170 C   0  0  0  0  0  0  0  0  0  0  0  0
    1.8850    1.5580    1.0680 N   0  0  0  0  0  0  0  0  0  0  0  0
    1.3690    2.3300    1.4680 H   0  0  0  0  0  0  0  0  0  0  0  0
    0.1800   -0.2690    1.5340 C   0  0  2  0  0  0  0  0  0  0  0  0
   -1.7140   -0.1680   -0.2120 C   0  0  1  0  0  0  0  0  0  0  0  0
    0.0580   -1.7820    1.2920 N   0  3  3  0  0  0  0  0  0  0  0  0
    0.4820   -2.2060    2.1270 H   0  0  0  0  0  0  0  0  0  0  0  0
    3.5390    0.4140    0.0760 C   0  0  0  0  0  0  0  0  0  0  0  0
   -2.8290    0.6890   -0.8640 C   0  0  2  0  0  0  0  0  0  0  0  0
    3.1320    1.6840    0.4930 C   0  0  0  0  0  0  0  0  0  0  0  0
   -1.0580    0.4830    1.0130 C   0  0  0  0  0  0  0  0  0  0  0  0
   -1.7880    0.5100    1.8320 H   0  0  0  0  0  0  0  0  0  0  0  0
   -0.8180    1.5310    0.7950 H   0  0  0  0  0  0  0  0  0  0  0  0
   -2.1220   -1.6420    0.0680 C   0  0  1  0  0  0  0  0  0  0  0  0
   -3.6390    1.5230    0.1200 C   0  0  0  0  0  0  0  0  0  0  0  0
   -1.3750   -2.2450    1.2680 C   0  0  0  0  0  0  0  0  0  0  0  0
   -1.3690   -3.3400    1.2300 H   0  0  0  0  0  0  0  0  0  0  0  0
   -1.8160   -1.9430    2.2250 H   0  0  0  0  0  0  0  0  0  0  0  0
    2.3610   -1.9480    0.2330 C   0  0  0  0  0  0  0  0  0  0  0  0
    2.8210   -2.4580    1.0880 H   0  0  0  0  0  0  0  0  0  0  0  0
    2.8830   -2.2770   -0.6710 H   0  0  0  0  0  0  0  0  0  0  0  0
    0.8830   -2.3410    0.1230 C   0  0  0  0  0  0  0  0  0  0  0  0
    0.7740   -3.4310    0.1490 H   0  0  0  0  0  0  0  0  0  0  0  0
    0.4520   -1.9600   -0.8070 H   0  0  0  0  0  0  0  0  0  0  0  0
   -3.7490   -0.1880   -1.7150 C   0  0  1  0  0  0  0  0  0  0  0  0
    4.8040    0.2610   -0.5440 C   0  0  0  0  0  0  0  0  0  0  0  0
   -4.1810    1.0870    1.1260 O   0  0  0  0  0  0  0  0  0  0  0  0
   -3.6310   -1.8410    0.2430 C   0  0  0  0  0  0  0  0  0  0  0  0
   -3.8590   -2.9090    0.3530 H   0  0  0  0  0  0  0  0  0  0  0  0
   -3.9540   -1.3780    1.1830 H   0  0  0  0  0  0  0  0  0  0  0  0
   -4.4610   -1.2750   -0.9100 C   0  0  0  0  0  0  0  0  0  0  0  0
   -5.4200   -0.9070   -0.5220 H   0  0  0  0  0  0  0  0  0  0  0  0
   -4.7320   -2.0870   -1.5970 H   0  0  0  0  0  0  0  0  0  0  0  0
   -3.6420    2.8330   -0.2610 O   0  0  0  0  0  0  0  0  0  0  0  0
    3.9200    2.8260    0.3220 C   0  0  0  0  0  0  0  0  0  0  0  0
    3.5860    3.8040    0.6520 H   0  0  0  0  0  0  0  0  0  0  0  0
   -4.6990    0.6150   -2.4040 O   0  0  0  0  0  0  0  0  0  0  0  0
   -5.2490    0.0260   -2.9510 H   0  0  0  0  0  0  0  0  0  0  0  0
    5.1600   -1.0030   -0.9330 O   0  0  0  0  0  0  0  0  0  0  0  0
    5.1600    2.6640   -0.2960 C   0  0  0  0  0  0  0  0  0  0  0  0
    5.7970    3.5320   -0.4480 H   0  0  0  0  0  0  0  0  0  0  0  0
    5.5970    1.4080   -0.7220 C   0  0  0  0  0  0  0  0  0  0  0  0
    6.5720    1.3540   -1.1970 H   0  0  0  0  0  0  0  0  0  0  0  0
   -4.3920    3.6990    0.5930 C   0  0  0  0  0  0  0  0  0  0  0  0
   -4.3430    4.7090    0.1770 H   0  0  0  0  0  0  0  0  0  0  0  0
   -3.9560    3.7140    1.5970 H   0  0  0  0  0  0  0  0  0  0  0  0
   -5.4410    3.3880    0.6290 H   0  0  0  0  0  0  0  0  0  0  0  0
    6.4710   -1.1800   -1.4580 C   0  0  0  0  0  0  0  0  0  0  0  0
    6.6060   -2.2450   -1.6670 H   0  0  0  0  0  0  0  0  0  0  0  0
    7.2330   -0.8850   -0.7290 H   0  0  0  0  0  0  0  0  0  0  0  0
    6.5920   -0.6380   -2.4010 H   0  0  0  0  0  0  0  0  0  0  0  0
    0.2040   -0.1640    2.6270 H   0  0  0  0  0  0  0  0  0  0  0  0
   -0.9270   -0.2190   -0.9780 H   0  0  0  0  0  0  0  0  0  0  0  0
   -1.8410   -2.2230   -0.8220 H   0  0  0  0  0  0  0  0  0  0  0  0
   -2.3330    1.4090   -1.5320 H   0  0  0  0  0  0  0  0  0  0  0  0
   -3.1350   -0.6720   -2.4870 H   0  0  0  0  0  0  0  0  0  0  0  0
  1  2  2  0  0  0  0
  1  3  1  0  0  0  0
  1  5  1  0  0  0  0
  2  9  1  0  0  0  0
  2 20  1  0  0  0  0
  3  4  1  0  0  0  0
  3 11  1  0  0  0  0
  5  7  1  0  0  0  0
  5 12  1  0  0  0  0
  5 53  1  0  0  0  0
  6 10  1  0  0  0  0
  6 12  1  0  0  0  0
  6 15  1  0  0  0  0
  6 54  1  0  0  0  0
  7  8  1  0  0  0  0
  7 17  1  0  0  0  0
  7 23  1  0  0  0  0
  9 11  2  0  0  0  0
  9 27  1  0  0  0  0
 10 16  1  0  0  0  0
 10 26  1  0  0  0  0
 10 56  1  0  0  0  0
 11 36  1  0  0  0  0
 12 13  1  0  0  0  0
 12 14  1  0  0  0  0
 15 17  1  0  0  0  0
 15 29  1  0  0  0  0
 15 55  1  0  0  0  0
 16 28  2  0  0  0  0
 16 35  1  0  0  0  0
 17 18  1  0  0  0  0
 17 19  1  0  0  0  0
 20 21  1  0  0  0  0
 20 22  1  0  0  0  0
 20 23  1  0  0  0  0
 23 24  1  0  0  0  0
 23 25  1  0  0  0  0
 26 32  1  0  0  0  0
 26 38  1  0  0  0  0
 26 57  1  0  0  0  0
 27 40  1  0  0  0  0
 27 43  2  0  0  0  0
 29 30  1  0  0  0  0
 29 31  1  0  0  0  0
 29 32  1  0  0  0  0
 32 33  1  0  0  0  0
 32 34  1  0  0  0  0
 35 45  1  0  0  0  0
 36 37  1  0  0  0  0
 36 41  2  0  0  0  0
 38 39  1  0  0  0  0
 40 49  1  0  0  0  0
 41 42  1  0  0  0  0
 41 43  1  0  0  0  0
 43 44  1  0  0  0  0
 45 46  1  0  0  0  0
 45 47  1  0  0  0  0
 45 48  1  0  0  0  0
 49 50  1  0  0  0  0
 49 51  1  0  0  0  0
 49 52  1  0  0  0  0
M  CHG  1   7   1
M  END
>  <IDNUMBER>
AK-693/43417378

>  <NAME>
Venenatine methiodide

>  <ADD_INFO>
http://www.specs.net/enter.php?specsid=AK-693/43417378

>  <H_ACCEPTORS>
5

>  <H_DONORS>
2

>  <ROTATABLE_BONDS>
3

>  <LOGP>
2.1900001

>  <LOGS>
-2.8699999

>  <TPSA>
74.790001

>  <PRICE>
N07

>  <SALTDATA>
CH3I

$$$$
AK-693/43417381
  MOE2011           3D

 26 28  0  0  0  0  0  0  0  0999 V2000
    0.6720   -1.8220   -0.0010 N   0  0  0  0  0  0  0  0  0  0  0  0
    0.7260   -2.8290   -0.0020 H   0  0  0  0  0  0  0  0  0  0  0  0
   -0.4920   -1.0880   -0.0010 C   0  0  0  0  0  0  0  0  0  0  0  0
   -0.1170    0.2580   -0.0010 C   0  0  0  0  0  0  0  0  0  0  0  0
    1.3140    0.3100   -0.0020 C   0  0  0  0  0  0  0  0  0  0  0  0
    1.7770   -1.0040   -0.0010 C   0  0  0  0  0  0  0  0  0  0  0  0
   -1.8390   -1.4760    0.0000 C   0  0  0  0  0  0  0  0  0  0  0  0
   -1.1280    1.2460    0.0000 C   0  0  0  0  0  0  0  0  0  0  0  0
   -0.8490    2.2960    0.0000 H   0  0  0  0  0  0  0  0  0  0  0  0
   -2.8210   -0.4840    0.0000 C   0  0  0  0  0  0  0  0  0  0  0  0
   -3.8680   -0.7820    0.0000 H   0  0  0  0  0  0  0  0  0  0  0  0
   -2.4810    0.8710    0.0020 C   0  0  0  0  0  0  0  0  0  0  0  0
   -2.2750   -2.7810    0.0000 O   0  0  0  0  0  0  0  0  0  0  0  0
   -1.5040   -3.3670    0.0020 H   0  0  0  0  0  0  0  0  0  0  0  0
    2.2590    1.3580   -0.0020 C   0  0  0  0  0  0  0  0  0  0  0  0
    1.9340    2.3940   -0.0030 H   0  0  0  0  0  0  0  0  0  0  0  0
    3.1390   -1.3280    0.0010 C   0  0  0  0  0  0  0  0  0  0  0  0
    3.4790   -2.3590    0.0020 H   0  0  0  0  0  0  0  0  0  0  0  0
   -3.5640    1.9100    0.0000 C   0  0  0  0  0  0  0  0  0  0  0  0
   -3.1480    2.9230    0.0290 H   0  0  0  0  0  0  0  0  0  0  0  0
   -4.2060    1.7880    0.8780 H   0  0  0  0  0  0  0  0  0  0  0  0
   -4.1710    1.8210   -0.9060 H   0  0  0  0  0  0  0  0  0  0  0  0
    3.6250    1.0520    0.0000 C   0  0  0  0  0  0  0  0  0  0  0  0
    4.3560    1.8570    0.0000 H   0  0  0  0  0  0  0  0  0  0  0  0
    4.0560   -0.2730    0.0020 C   0  0  0  0  0  0  0  0  0  0  0  0
    5.1220   -0.4900    0.0040 H   0  0  0  0  0  0  0  0  0  0  0  0
  1  2  1  0  0  0  0
  1  3  1  0  0  0  0
  1  6  1  0  0  0  0
  3  4  2  0  0  0  0
  3  7  1  0  0  0  0
  4  5  1  0  0  0  0
  4  8  1  0  0  0  0
  5  6  2  0  0  0  0
  5 15  1  0  0  0  0
  6 17  1  0  0  0  0
  7 10  2  0  0  0  0
  7 13  1  0  0  0  0
  8  9  1  0  0  0  0
  8 12  2  0  0  0  0
 10 11  1  0  0  0  0
 10 12  1  0  0  0  0
 12 19  1  0  0  0  0
 13 14  1  0  0  0  0
 15 16  1  0  0  0  0
 15 23  2  0  0  0  0
 17 18  1  0  0  0  0
 17 25  2  0  0  0  0
 19 20  1  0  0  0  0
 19 21  1  0  0  0  0
 19 22  1  0  0  0  0
 23 24  1  0  0  0  0
 23 25  1  0  0  0  0
 25 26  1  0  0  0  0
M  END
>  <IDNUMBER>
AK-693/43417381

>  <NAME>
3-methyl-9H-carbazol-1-ol

>  <ADD_INFO>
http://www.specs.net/enter.php?specsid=AK-693/43417381

>  <H_ACCEPTORS>
1

>  <H_DONORS>
2

>  <ROTATABLE_BONDS>
0

>  <LOGP>
3.3

>  <LOGS>
-3.99

>  <TPSA>
36.02

>  <PRICE>
N07

$$$$
AK-693/43417382
  MOE2011           3D

 30 30  0  0  0  0  0  0  0  0999 V2000
    0.2490    1.1950    0.3920 C   0  0  0  0  0  0  0  0  0  0  0  0
   -0.6380    2.2250    0.0430 C   0  0  0  0  0  0  0  0  0  0  0  0
   -0.2430   -0.1090    0.5660 C   0  0  0  0  0  0  0  0  0  0  0  0
   -1.9760    1.9590   -0.2210 C   0  0  0  0  0  0  0  0  0  0  0  0
   -2.6430    2.7680   -0.5060 H   0  0  0  0  0  0  0  0  0  0  0  0
   -1.6000   -0.3690    0.3020 C   0  0  0  0  0  0  0  0  0  0  0  0
   -1.9910   -1.3700    0.4290 H   0  0  0  0  0  0  0  0  0  0  0  0
    1.6650    1.5800    0.6000 C   0  0  0  0  0  0  0  0  0  0  0  0
   -2.4620    0.6570   -0.1040 C   0  0  0  0  0  0  0  0  0  0  0  0
    2.8020    0.7190    0.1910 C   0  0  0  0  0  0  0  0  0  0  0  0
    3.7080    0.8600    0.7730 H   0  0  0  0  0  0  0  0  0  0  0  0
    1.8880    2.7060    1.0520 O   0  0  0  0  0  0  0  0  0  0  0  0
    2.7830   -0.0940   -0.8750 C   0  0  0  0  0  0  0  0  0  0  0  0
    1.8930   -0.1850   -1.4910 H   0  0  0  0  0  0  0  0  0  0  0  0
   -0.2380    3.5360   -0.0360 O   0  0  0  0  0  0  0  0  0  0  0  0
    0.6470    3.5950    0.4030 H   0  0  0  0  0  0  0  0  0  0  0  0
    0.6360   -1.0470    1.0410 O   0  0  0  0  0  0  0  0  0  0  0  0
   -3.7940    0.5220   -0.3910 O   0  0  0  0  0  0  0  0  0  0  0  0
    3.9540   -0.9190   -1.3010 C   0  0  0  0  0  0  0  0  0  0  0  0
    4.2530   -0.6450   -2.3180 H   0  0  0  0  0  0  0  0  0  0  0  0
    3.6830   -1.9790   -1.2960 H   0  0  0  0  0  0  0  0  0  0  0  0
    4.8180   -0.7850   -0.6430 H   0  0  0  0  0  0  0  0  0  0  0  0
    0.1930   -2.3950    1.1360 C   0  0  0  0  0  0  0  0  0  0  0  0
    1.0410   -3.0020    1.4670 H   0  0  0  0  0  0  0  0  0  0  0  0
   -0.1290   -2.7760    0.1610 H   0  0  0  0  0  0  0  0  0  0  0  0
   -0.6000   -2.4960    1.8840 H   0  0  0  0  0  0  0  0  0  0  0  0
   -4.3460   -0.7870   -0.3220 C   0  0  0  0  0  0  0  0  0  0  0  0
   -5.4000   -0.7210   -0.6080 H   0  0  0  0  0  0  0  0  0  0  0  0
   -4.3020   -1.1790    0.7000 H   0  0  0  0  0  0  0  0  0  0  0  0
   -3.8510   -1.4630   -1.0270 H   0  0  0  0  0  0  0  0  0  0  0  0
  1  2  2  0  0  0  0
  1  3  1  0  0  0  0
  1  8  1  0  0  0  0
  2  4  1  0  0  0  0
  2 15  1  0  0  0  0
  3  6  2  0  0  0  0
  3 17  1  0  0  0  0
  4  5  1  0  0  0  0
  4  9  2  0  0  0  0
  6  7  1  0  0  0  0
  6  9  1  0  0  0  0
  8 10  1  0  0  0  0
  8 12  2  0  0  0  0
  9 18  1  0  0  0  0
 10 11  1  0  0  0  0
 10 13  2  0  0  0  0
 13 14  1  0  0  0  0
 13 19  1  0  0  0  0
 15 16  1  0  0  0  0
 17 23  1  0  0  0  0
 18 27  1  0  0  0  0
 19 20  1  0  0  0  0
 19 21  1  0  0  0  0
 19 22  1  0  0  0  0
 23 24  1  0  0  0  0
 23 25  1  0  0  0  0
 23 26  1  0  0  0  0
 27 28  1  0  0  0  0
 27 29  1  0  0  0  0
 27 30  1  0  0  0  0
M  END
>  <IDNUMBER>
AK-693/43417382

>  <NAME>
1-(2-hydroxy-4,6-dimethoxyphenyl)-2-buten-1-one

>  <ADD_INFO>
http://www.specs.net/enter.php?specsid=AK-693/43417382

>  <H_ACCEPTORS>
1

>  <H_DONORS>
1

>  <ROTATABLE_BONDS>
4

>  <LOGP>
2.9000001

>  <LOGS>
-2.72

>  <TPSA>
55.759998

>  <PRICE>
N07

$$$$
AK-693/43417386
  MOE2011           3D

 72 77  0  0  1  0  0  0  0  0999 V2000
   -0.4080   -1.2410    0.6770 C   0  0  1  0  0  0  0  0  0  0  0  0
   -1.8220   -1.1560    1.1540 C   0  0  2  0  0  0  0  0  0  0  0  0
    0.3470    0.2660   -0.9660 C   0  0  1  0  0  0  0  0  0  0  0  0
    0.2350    0.1440    0.5770 C   0  0  1  0  0  0  0  0  0  0  0  0
   -1.9990   -0.4590   -0.1780 C   0  0  2  0  0  0  0  0  0  0  0  0
    1.6310   -0.5740   -0.7620 C   0  0  1  0  0  0  0  0  0  0  0  0
   -1.1050   -0.3380   -1.4350 C   0  0  1  0  0  0  0  0  0  0  0  0
    2.6760    0.5080   -0.0580 C   0  0  2  0  0  0  0  0  0  0  0  0
    0.4890    1.4050    1.2130 N   0  3  3  0  0  0  0  0  0  0  0  0
   -0.0610    2.0980    0.6410 H   0  0  0  0  0  0  0  0  0  0  0  0
    1.1390   -1.7820    0.1680 C   0  0  2  0  0  0  0  0  0  0  0  0
   -2.4160    1.1160    0.0500 C   0  0  2  0  0  0  0  0  0  0  0  0
   -3.3710    0.9680   -1.0520 C   0  0  3  0  0  0  0  0  0  0  0  0
   -3.5060   -0.7130    1.1940 C   0  0  0  0  0  0  0  0  0  0  0  0
   -4.0540   -1.6470    1.3870 H   0  0  0  0  0  0  0  0  0  0  0  0
   -3.6800   -0.0750    2.0750 H   0  0  0  0  0  0  0  0  0  0  0  0
   -2.3370    0.4020   -2.1780 C   0  0  0  0  0  0  0  0  0  0  0  0
   -2.8810   -0.3270   -2.7930 H   0  0  0  0  0  0  0  0  0  0  0  0
   -2.0110    1.1870   -2.8610 H   0  0  0  0  0  0  0  0  0  0  0  0
    2.0480    1.5310    1.0790 C   0  0  0  0  0  0  0  0  0  0  0  0
    2.2690    2.5870    0.9030 H   0  0  0  0  0  0  0  0  0  0  0  0
    2.4580    1.2630    2.0610 H   0  0  0  0  0  0  0  0  0  0  0  0
   -4.3420    0.0060   -0.1830 C   0  0  2  0  0  0  0  0  0  0  0  0
    0.7270    1.4330   -1.9450 C   0  0  2  0  0  0  0  0  0  0  0  0
    3.1660    1.3920   -1.2200 C   0  0  0  0  0  0  0  0  0  0  0  0
    3.9730    2.0600   -0.8940 H   0  0  0  0  0  0  0  0  0  0  0  0
    3.5820    0.7760   -2.0270 H   0  0  0  0  0  0  0  0  0  0  0  0
   -0.6560   -2.6800    0.5920 O   0  0  0  0  0  0  0  0  0  0  0  0
   -0.3270   -3.0430   -0.2680 H   0  0  0  0  0  0  0  0  0  0  0  0
   -1.9450   -1.7810    2.3740 O   0  0  0  0  0  0  0  0  0  0  0  0
   -1.5690   -2.6710    2.1920 H   0  0  0  0  0  0  0  0  0  0  0  0
    2.0210    2.2200   -1.7560 C   0  0  0  0  0  0  0  0  0  0  0  0
    2.3150    2.6680   -2.7140 H   0  0  0  0  0  0  0  0  0  0  0  0
    1.8360    3.0870   -1.1110 H   0  0  0  0  0  0  0  0  0  0  0  0
   -1.4610    2.1460   -0.0870 O   0  0  0  0  0  0  0  0  0  0  0  0
   -1.2970    2.3450   -1.0490 H   0  0  0  0  0  0  0  0  0  0  0  0
    1.0510   -2.9300   -0.7320 O   0  0  0  0  0  0  0  0  0  0  0  0
    3.8930   -0.2100    0.5650 C   0  0  0  0  0  0  0  0  0  0  0  0
    3.5920   -0.7700    1.4570 H   0  0  0  0  0  0  0  0  0  0  0  0
    4.6480    0.5260    0.8710 H   0  0  0  0  0  0  0  0  0  0  0  0
   -0.0220    1.5520    2.6270 C   0  0  0  0  0  0  0  0  0  0  0  0
   -1.0740    1.2540    2.6300 H   0  0  0  0  0  0  0  0  0  0  0  0
    0.5430    0.8720    3.2730 H   0  0  0  0  0  0  0  0  0  0  0  0
   -4.9200   -0.9730   -1.0420 O   0  0  0  0  0  0  0  0  0  0  0  0
   -0.3010    2.4210   -2.0660 O   0  0  0  0  0  0  0  0  0  0  0  0
   -0.0810    2.9670   -2.8490 H   0  0  0  0  0  0  0  0  0  0  0  0
    4.4620   -1.1080   -0.3800 O   0  0  0  0  0  0  0  0  0  0  0  0
    2.2950   -3.6070   -0.8900 C   0  0  0  0  0  0  0  0  0  0  0  0
    2.1120   -4.5180   -1.4670 H   0  0  0  0  0  0  0  0  0  0  0  0
    2.7100   -3.8910    0.0820 H   0  0  0  0  0  0  0  0  0  0  0  0
    3.0050   -2.9910   -1.4450 H   0  0  0  0  0  0  0  0  0  0  0  0
   -6.1540   -1.4850   -0.5580 C   0  0  0  0  0  0  0  0  0  0  0  0
   -6.5150   -2.2340   -1.2680 H   0  0  0  0  0  0  0  0  0  0  0  0
   -6.8980   -0.6860   -0.4900 H   0  0  0  0  0  0  0  0  0  0  0  0
   -6.0300   -1.9650    0.4170 H   0  0  0  0  0  0  0  0  0  0  0  0
    5.6170   -1.7600    0.1350 C   0  0  0  0  0  0  0  0  0  0  0  0
    6.0010   -2.4360   -0.6330 H   0  0  0  0  0  0  0  0  0  0  0  0
    5.3600   -2.3470    1.0220 H   0  0  0  0  0  0  0  0  0  0  0  0
    6.3940   -1.0280    0.3780 H   0  0  0  0  0  0  0  0  0  0  0  0
    0.1140    2.9960    3.0730 C   0  0  0  0  0  0  0  0  0  0  0  0
   -0.4280    3.6700    2.4010 H   0  0  0  0  0  0  0  0  0  0  0  0
    1.1610    3.3110    3.1040 H   0  0  0  0  0  0  0  0  0  0  0  0
   -0.3010    3.1180    4.0780 H   0  0  0  0  0  0  0  0  0  0  0  0
    2.0330   -0.9380   -1.7150 H   0  0  0  0  0  0  0  0  0  0  0  0
   -2.6750   -1.2090   -0.6520 H   0  0  0  0  0  0  0  0  0  0  0  0
   -0.9270   -1.2900   -1.9520 H   0  0  0  0  0  0  0  0  0  0  0  0
    0.9830   -0.2440    1.2840 H   0  0  0  0  0  0  0  0  0  0  0  0
    1.7860   -2.0330    1.0200 H   0  0  0  0  0  0  0  0  0  0  0  0
   -2.8830    1.3790    1.0010 H   0  0  0  0  0  0  0  0  0  0  0  0
   -3.8760    1.8720   -1.3990 H   0  0  0  0  0  0  0  0  0  0  0  0
   -5.1330    0.6330    0.2550 H   0  0  0  0  0  0  0  0  0  0  0  0
    0.7950    0.9590   -2.9350 H   0  0  0  0  0  0  0  0  0  0  0  0
  1  2  1  0  0  0  0
  1  4  1  0  0  0  0
  1 11  1  0  0  0  0
  1 28  1  0  0  0  0
  2  5  1  0  0  0  0
  2 14  1  0  0  0  0
  2 30  1  0  0  0  0
  3  4  1  0  0  0  0
  3  6  1  0  0  0  0
  3  7  1  0  0  0  0
  3 24  1  0  0  0  0
  4  9  1  0  0  0  0
  4 67  1  0  0  0  0
  5  7  1  0  0  0  0
  5 12  1  0  0  0  0
  5 65  1  0  0  0  0
  6  8  1  0  0  0  0
  6 11  1  0  0  0  0
  6 64  1  0  0  0  0
  7 17  1  0  0  0  0
  7 66  1  0  0  0  0
  8 20  1  0  0  0  0
  8 25  1  0  0  0  0
  8 38  1  0  0  0  0
  9 10  1  0  0  0  0
  9 20  1  0  0  0  0
  9 41  1  0  0  0  0
 11 37  1  0  0  0  0
 11 68  1  0  0  0  0
 12 13  1  0  0  0  0
 12 35  1  0  0  0  0
 12 69  1  0  0  0  0
 13 17  1  0  0  0  0
 13 23  1  0  0  0  0
 13 70  1  0  0  0  0
 14 15  1  0  0  0  0
 14 16  1  0  0  0  0
 14 23  1  0  0  0  0
 17 18  1  0  0  0  0
 17 19  1  0  0  0  0
 20 21  1  0  0  0  0
 20 22  1  0  0  0  0
 23 44  1  0  0  0  0
 23 71  1  0  0  0  0
 24 32  1  0  0  0  0
 24 45  1  0  0  0  0
 24 72  1  0  0  0  0
 25 26  1  0  0  0  0
 25 27  1  0  0  0  0
 25 32  1  0  0  0  0
 28 29  1  0  0  0  0
 30 31  1  0  0  0  0
 32 33  1  0  0  0  0
 32 34  1  0  0  0  0
 35 36  1  0  0  0  0
 37 48  1  0  0  0  0
 38 39  1  0  0  0  0
 38 40  1  0  0  0  0
 38 47  1  0  0  0  0
 41 42  1  0  0  0  0
 41 43  1  0  0  0  0
 41 60  1  0  0  0  0
 44 52  1  0  0  0  0
 45 46  1  0  0  0  0
 47 56  1  0  0  0  0
 48 49  1  0  0  0  0
 48 50  1  0  0  0  0
 48 51  1  0  0  0  0
 52 53  1  0  0  0  0
 52 54  1  0  0  0  0
 52 55  1  0  0  0  0
 56 57  1  0  0  0  0
 56 58  1  0  0  0  0
 56 59  1  0  0  0  0
 60 61  1  0  0  0  0
 60 62  1  0  0  0  0
 60 63  1  0  0  0  0
M  CHG  1   9   1
M  END
>  <IDNUMBER>
AK-693/43417386

>  <NAME>
Delcosine

>  <ADD_INFO>
http://www.specs.net/enter.php?specsid=AK-693/43417386

>  <H_ACCEPTORS>
8

>  <H_DONORS>
4

>  <ROTATABLE_BONDS>
5

>  <LOGP>
-2.02

>  <LOGS>
0.23

>  <TPSA>
111.85

>  <PRICE>
N07

$$$$
AK-693/43417391
  MOE2011           3D

 26 27  0  0  0  0  0  0  0  0999 V2000
    0.8450    0.2590    0.0260 C   0  0  0  0  0  0  0  0  0  0  0  0
    0.0960   -0.9320    0.0240 C   0  0  0  0  0  0  0  0  0  0  0  0
    0.2220    1.5090    0.0290 C   0  0  0  0  0  0  0  0  0  0  0  0
    2.2570    0.1800    0.0310 O   0  0  0  0  0  0  0  0  0  0  0  0
    0.8170   -2.2060    0.0200 C   0  0  0  0  0  0  0  0  0  0  0  0
    0.2450   -3.1280    0.0160 H   0  0  0  0  0  0  0  0  0  0  0  0
   -1.3140   -0.8750    0.0250 C   0  0  0  0  0  0  0  0  0  0  0  0
   -1.1770    1.5310    0.0380 C   0  0  0  0  0  0  0  0  0  0  0  0
   -1.9450    0.3700    0.0350 C   0  0  0  0  0  0  0  0  0  0  0  0
   -3.0240    0.4760    0.0410 H   0  0  0  0  0  0  0  0  0  0  0  0
    2.9580   -1.0160    0.0270 C   0  0  0  0  0  0  0  0  0  0  0  0
    2.1510   -2.2420    0.0200 C   0  0  0  0  0  0  0  0  0  0  0  0
    2.6950   -3.1780    0.0170 H   0  0  0  0  0  0  0  0  0  0  0  0
    4.1820   -1.0600    0.0280 O   0  0  0  0  0  0  0  0  0  0  0  0
    0.7770    2.7610    0.0290 O   0  0  0  0  0  0  0  0  0  0  0  0
   -1.8350    2.7340    0.0490 O   0  0  0  0  0  0  0  0  0  0  0  0
   -1.1240    3.4070    0.0530 H   0  0  0  0  0  0  0  0  0  0  0  0
   -1.9760   -2.0770    0.0200 O   0  0  0  0  0  0  0  0  0  0  0  0
    2.1890    2.8830   -0.0650 C   0  0  0  0  0  0  0  0  0  0  0  0
    2.4260    3.9510   -0.1060 H   0  0  0  0  0  0  0  0  0  0  0  0
    2.5680    2.4310   -0.9870 H   0  0  0  0  0  0  0  0  0  0  0  0
    2.6800    2.4760    0.8250 H   0  0  0  0  0  0  0  0  0  0  0  0
   -3.3970   -2.0460   -0.0370 C   0  0  0  0  0  0  0  0  0  0  0  0
   -3.7520   -3.0810   -0.0630 H   0  0  0  0  0  0  0  0  0  0  0  0
   -3.7450   -1.5520   -0.9500 H   0  0  0  0  0  0  0  0  0  0  0  0
   -3.8170   -1.5720    0.8560 H   0  0  0  0  0  0  0  0  0  0  0  0
  1  2  2  0  0  0  0
  1  3  1  0  0  0  0
  1  4  1  0  0  0  0
  2  5  1  0  0  0  0
  2  7  1  0  0  0  0
  3  8  2  0  0  0  0
  3 15  1  0  0  0  0
  4 11  1  0  0  0  0
  5  6  1  0  0  0  0
  5 12  2  0  0  0  0
  7  9  2  0  0  0  0
  7 18  1  0  0  0  0
  8  9  1  0  0  0  0
  8 16  1  0  0  0  0
  9 10  1  0  0  0  0
 11 12  1  0  0  0  0
 11 14  2  0  0  0  0
 12 13  1  0  0  0  0
 15 19  1  0  0  0  0
 16 17  1  0  0  0  0
 18 23  1  0  0  0  0
 19 20  1  0  0  0  0
 19 21  1  0  0  0  0
 19 22  1  0  0  0  0
 23 24  1  0  0  0  0
 23 25  1  0  0  0  0
 23 26  1  0  0  0  0
M  END
>  <IDNUMBER>
AK-693/43417391

>  <NAME>
7-hydroxy-5,8-dimethoxy-2H-chromen-2-one

>  <ADD_INFO>
http://www.specs.net/enter.php?specsid=AK-693/43417391

>  <H_ACCEPTORS>
1

>  <H_DONORS>
1

>  <ROTATABLE_BONDS>
2

>  <LOGP>
0.94

>  <LOGS>
-1.62

>  <TPSA>
64.989998

>  <PRICE>
N07

$$$$
AK-693/43417399
  MOE2011           3D

 37 38  0  0  0  0  0  0  0  0999 V2000
   -1.0650    0.3130    0.6260 C   0  0  0  0  0  0  0  0  0  0  0  0
   -3.0330   -1.1120    0.4710 C   0  0  0  0  0  0  0  0  0  0  0  0
   -1.7170   -0.9110    0.8830 C   0  0  0  0  0  0  0  0  0  0  0  0
   -1.7770    1.3370   -0.0250 C   0  0  0  0  0  0  0  0  0  0  0  0
   -3.1050    1.1420   -0.4660 C   0  0  0  0  0  0  0  0  0  0  0  0
    0.3580    0.4360    1.0750 C   0  0  0  0  0  0  0  0  0  0  0  0
   -3.7210   -0.0910   -0.2000 C   0  0  0  0  0  0  0  0  0  0  0  0
    1.2560    1.5380    0.5700 C   0  0  0  0  0  0  0  0  0  0  0  0
    1.1170    1.7090   -0.5010 H   0  0  0  0  0  0  0  0  0  0  0  0
    0.9970    2.4580    1.1080 H   0  0  0  0  0  0  0  0  0  0  0  0
    2.7290    1.2830    0.8080 C   0  0  0  0  0  0  0  0  0  0  0  0
   -3.7050   -2.3960    0.7360 C   0  0  0  0  0  0  0  0  0  0  0  0
   -3.1530   -3.1900    1.2640 H   0  0  0  0  0  0  0  0  0  0  0  0
    0.7690   -0.4370    1.8480 O   0  0  0  0  0  0  0  0  0  0  0  0
    3.3860    2.0150    1.5480 O   0  0  0  0  0  0  0  0  0  0  0  0
    3.4030    0.1420    0.1190 C   0  0  0  0  0  0  0  0  0  0  0  0
   -1.0830   -1.9350    1.5480 O   0  0  0  0  0  0  0  0  0  0  0  0
   -0.2060   -1.5890    1.8590 H   0  0  0  0  0  0  0  0  0  0  0  0
   -1.1630    2.5460   -0.2080 O   0  0  0  0  0  0  0  0  0  0  0  0
   -1.8030    3.2180   -0.4930 H   0  0  0  0  0  0  0  0  0  0  0  0
   -4.8670   -2.5480    0.3590 O   0  0  0  0  0  0  0  0  0  0  0  0
   -5.0230   -0.2790   -0.6060 O   0  0  0  0  0  0  0  0  0  0  0  0
   -5.2910   -1.1950   -0.3370 H   0  0  0  0  0  0  0  0  0  0  0  0
   -3.8640    2.2280   -1.1830 C   0  0  0  0  0  0  0  0  0  0  0  0
   -4.7900    1.8680   -1.6400 H   0  0  0  0  0  0  0  0  0  0  0  0
   -3.2590    2.6400   -1.9980 H   0  0  0  0  0  0  0  0  0  0  0  0
   -4.1230    3.0280   -0.4810 H   0  0  0  0  0  0  0  0  0  0  0  0
    2.8150   -0.5480   -0.9480 C   0  0  0  0  0  0  0  0  0  0  0  0
    1.8370   -0.2820   -1.3380 H   0  0  0  0  0  0  0  0  0  0  0  0
    4.6780   -0.2370    0.5630 C   0  0  0  0  0  0  0  0  0  0  0  0
    5.1550    0.2900    1.3870 H   0  0  0  0  0  0  0  0  0  0  0  0
    5.3490   -1.2990   -0.0450 C   0  0  0  0  0  0  0  0  0  0  0  0
    6.3360   -1.5880    0.3070 H   0  0  0  0  0  0  0  0  0  0  0  0
    3.4920   -1.6100   -1.5540 C   0  0  0  0  0  0  0  0  0  0  0  0
    3.0320   -2.1460   -2.3810 H   0  0  0  0  0  0  0  0  0  0  0  0
    4.7560   -1.9860   -1.1020 C   0  0  0  0  0  0  0  0  0  0  0  0
    5.2810   -2.8110   -1.5750 H   0  0  0  0  0  0  0  0  0  0  0  0
  1  3  2  0  0  0  0
  1  4  1  0  0  0  0
  1  6  1  0  0  0  0
  2  3  1  0  0  0  0
  2  7  2  0  0  0  0
  2 12  1  0  0  0  0
  3 17  1  0  0  0  0
  4  5  2  0  0  0  0
  4 19  1  0  0  0  0
  5  7  1  0  0  0  0
  5 24  1  0  0  0  0
  6  8  1  0  0  0  0
  6 14  2  0  0  0  0
  7 22  1  0  0  0  0
  8  9  1  0  0  0  0
  8 10  1  0  0  0  0
  8 11  1  0  0  0  0
 11 15  2  0  0  0  0
 11 16  1  0  0  0  0
 12 13  1  0  0  0  0
 12 21  2  0  0  0  0
 16 28  2  0  0  0  0
 16 30  1  0  0  0  0
 17 18  1  0  0  0  0
 19 20  1  0  0  0  0
 22 23  1  0  0  0  0
 24 25  1  0  0  0  0
 24 26  1  0  0  0  0
 24 27  1  0  0  0  0
 28 29  1  0  0  0  0
 28 34  1  0  0  0  0
 30 31  1  0  0  0  0
 30 32  2  0  0  0  0
 32 33  1  0  0  0  0
 32 36  1  0  0  0  0
 34 35  1  0  0  0  0
 34 36  2  0  0  0  0
 36 37  1  0  0  0  0
M  END
>  <IDNUMBER>
AK-693/43417399

>  <NAME>
2,4,6-trihydroxy-3-methyl-5-(3-oxo-3-phenylpropanoyl)benzaldehyde

>  <ADD_INFO>
http://www.specs.net/enter.php?specsid=AK-693/43417399

>  <H_ACCEPTORS>
3

>  <H_DONORS>
3

>  <ROTATABLE_BONDS>
5

>  <LOGP>
4.4499998

>  <LOGS>
-4.71

>  <TPSA>
111.9

>  <PRICE>
N07

$$$$
AK-693/43460760
  MOE2011           3D

 61 64  0  0  1  0  0  0  0  0999 V2000
   -3.2920   -0.7880   -0.7690 C   0  0  3  0  0  0  0  0  0  0  0  0
   -1.0480    2.7990   -0.1440 C   0  0  1  0  0  0  0  0  0  0  0  0
   -0.7350    3.8700    0.7600 O   0  0  0  0  0  0  0  0  0  0  0  0
   -3.4640   -0.7300    0.6630 O   0  0  0  0  0  0  0  0  0  0  0  0
    0.9780    1.2990   -0.7820 C   0  0  1  0  0  0  0  0  0  0  0  0
    0.0370    2.4440   -1.1260 C   0  0  2  0  0  0  0  0  0  0  0  0
   -1.1170    2.6410    1.3910 C   0  0  2  0  0  0  0  0  0  0  0  0
    1.7070   -0.7970    1.2530 C   0  0  0  0  0  0  0  0  0  0  0  0
    0.3460   -0.1080   -0.9080 C   0  0  1  0  0  0  0  0  0  0  0  0
    0.9540   -1.2250    0.0080 C   0  0  1  0  0  0  0  0  0  0  0  0
    0.8900    3.5710   -1.3890 O   0  0  0  0  0  0  0  0  0  0  0  0
   -1.8820   -0.9320   -1.2110 C   0  0  0  0  0  0  0  0  0  0  0  0
    2.0720    3.1250   -1.9020 C   0  0  0  0  0  0  0  0  0  0  0  0
    2.1090    1.6530   -1.6960 C   0  0  0  0  0  0  0  0  0  0  0  0
   -3.8820   -1.9430    0.0320 C   0  0  3  0  0  0  0  0  0  0  0  0
   -1.0720   -0.0090   -0.6230 O   0  0  0  0  0  0  0  0  0  0  0  0
    3.1130   -1.2520    1.3750 C   0  0  0  0  0  0  0  0  0  0  0  0
    1.8310   -2.0050   -0.8440 O   0  0  0  0  0  0  0  0  0  0  0  0
    1.2660   -0.0540    2.2910 C   0  0  0  0  0  0  0  0  0  0  0  0
    1.9480    0.1520    3.1180 H   0  0  0  0  0  0  0  0  0  0  0  0
    1.5960   -3.3450   -0.9230 C   0  0  0  0  0  0  0  0  0  0  0  0
    2.9360    3.8130   -2.4120 O   0  0  0  0  0  0  0  0  0  0  0  0
   -1.5360   -1.7830   -2.0160 O   0  0  0  0  0  0  0  0  0  0  0  0
    3.0300    0.8890   -2.2930 C   0  0  0  0  0  0  0  0  0  0  0  0
    3.7870    1.3270   -2.9390 H   0  0  0  0  0  0  0  0  0  0  0  0
    3.0710   -0.1850   -2.1540 H   0  0  0  0  0  0  0  0  0  0  0  0
    3.4470   -2.4110    1.5590 O   0  0  0  0  0  0  0  0  0  0  0  0
    0.7060   -3.9580   -0.3520 O   0  0  0  0  0  0  0  0  0  0  0  0
   -4.1860    0.1500   -1.5200 C   0  0  0  0  0  0  0  0  0  0  0  0
   -4.5030   -0.3060   -2.4630 H   0  0  0  0  0  0  0  0  0  0  0  0
   -3.6540    1.0780   -1.7540 H   0  0  0  0  0  0  0  0  0  0  0  0
   -5.0810    0.4240   -0.9530 H   0  0  0  0  0  0  0  0  0  0  0  0
   -0.0230    2.1030    2.2820 C   0  0  0  0  0  0  0  0  0  0  0  0
    0.9590    2.4460    1.9370 H   0  0  0  0  0  0  0  0  0  0  0  0
   -0.1320    2.5610    3.2750 H   0  0  0  0  0  0  0  0  0  0  0  0
   -2.4810    2.7050    2.0260 C   0  0  0  0  0  0  0  0  0  0  0  0
   -2.8370    1.6980    2.2660 H   0  0  0  0  0  0  0  0  0  0  0  0
   -3.2190    3.1700    1.3640 H   0  0  0  0  0  0  0  0  0  0  0  0
   -2.4490    3.2890    2.9510 H   0  0  0  0  0  0  0  0  0  0  0  0
    3.9300   -0.1800    1.2130 O   0  0  0  0  0  0  0  0  0  0  0  0
   -5.3400   -2.2210    0.1180 C   0  0  0  0  0  0  0  0  0  0  0  0
   -5.6840   -2.7140   -0.7960 H   0  0  0  0  0  0  0  0  0  0  0  0
   -5.9360   -1.3150    0.2670 H   0  0  0  0  0  0  0  0  0  0  0  0
   -5.5430   -2.8900    0.9600 H   0  0  0  0  0  0  0  0  0  0  0  0
   -0.0890    0.5770    2.4480 C   0  0  0  0  0  0  0  0  0  0  0  0
   -0.8160    0.1240    1.7700 H   0  0  0  0  0  0  0  0  0  0  0  0
   -0.4540    0.3430    3.4560 H   0  0  0  0  0  0  0  0  0  0  0  0
    2.6080   -3.9780   -1.8290 C   0  0  0  0  0  0  0  0  0  0  0  0
    2.5250   -3.5510   -2.8320 H   0  0  0  0  0  0  0  0  0  0  0  0
    2.4180   -5.0530   -1.8900 H   0  0  0  0  0  0  0  0  0  0  0  0
    3.6120   -3.8240   -1.4270 H   0  0  0  0  0  0  0  0  0  0  0  0
    5.3220   -0.4930    1.2720 C   0  0  0  0  0  0  0  0  0  0  0  0
    5.8850    0.4320    1.1200 H   0  0  0  0  0  0  0  0  0  0  0  0
    5.5890   -1.1970    0.4780 H   0  0  0  0  0  0  0  0  0  0  0  0
    5.5800   -0.9000    2.2540 H   0  0  0  0  0  0  0  0  0  0  0  0
   -0.4700    2.2260   -2.0790 H   0  0  0  0  0  0  0  0  0  0  0  0
   -1.9970    2.8810   -0.6670 H   0  0  0  0  0  0  0  0  0  0  0  0
    1.3780    1.4670    0.2110 H   0  0  0  0  0  0  0  0  0  0  0  0
    0.4440   -0.4140   -1.9600 H   0  0  0  0  0  0  0  0  0  0  0  0
    0.1330   -1.8600    0.3620 H   0  0  0  0  0  0  0  0  0  0  0  0
   -3.2820   -2.8340    0.1750 H   0  0  0  0  0  0  0  0  0  0  0  0
  1  4  1  0  0  0  0
  1 12  1  0  0  0  0
  1 15  1  0  0  0  0
  1 29  1  0  0  0  0
  2  3  1  0  0  0  0
  2  6  1  0  0  0  0
  2  7  1  0  0  0  0
  2 57  1  0  0  0  0
  3  7  1  0  0  0  0
  4 15  1  0  0  0  0
  5  6  1  0  0  0  0
  5  9  1  0  0  0  0
  5 14  1  0  0  0  0
  5 58  1  0  0  0  0
  6 11  1  0  0  0  0
  6 56  1  0  0  0  0
  7 33  1  0  0  0  0
  7 36  1  0  0  0  0
  8 10  1  0  0  0  0
  8 17  1  0  0  0  0
  8 19  2  0  0  0  0
  9 10  1  0  0  0  0
  9 16  1  0  0  0  0
  9 59  1  0  0  0  0
 10 18  1  0  0  0  0
 10 60  1  0  0  0  0
 11 13  1  0  0  0  0
 12 16  1  0  0  0  0
 12 23  2  0  0  0  0
 13 14  1  0  0  0  0
 13 22  2  0  0  0  0
 14 24  2  0  0  0  0
 15 41  1  0  0  0  0
 15 61  1  0  0  0  0
 17 27  2  0  0  0  0
 17 40  1  0  0  0  0
 18 21  1  0  0  0  0
 19 20  1  0  0  0  0
 19 45  1  0  0  0  0
 21 28  2  0  0  0  0
 21 48  1  0  0  0  0
 24 25  1  0  0  0  0
 24 26  1  0  0  0  0
 29 30  1  0  0  0  0
 29 31  1  0  0  0  0
 29 32  1  0  0  0  0
 33 34  1  0  0  0  0
 33 35  1  0  0  0  0
 33 45  1  0  0  0  0
 36 37  1  0  0  0  0
 36 38  1  0  0  0  0
 36 39  1  0  0  0  0
 40 52  1  0  0  0  0
 41 42  1  0  0  0  0
 41 43  1  0  0  0  0
 41 44  1  0  0  0  0
 45 46  1  0  0  0  0
 45 47  1  0  0  0  0
 48 49  1  0  0  0  0
 48 50  1  0  0  0  0
 48 51  1  0  0  0  0
 52 53  1  0  0  0  0
 52 54  1  0  0  0  0
 52 55  1  0  0  0  0
M  END
>  <IDNUMBER>
AK-693/43460760

>  <NAME>
Enhydrin

>  <ADD_INFO>
http://www.specs.net/enter.php?specsid=AK-693/43460760

>  <H_ACCEPTORS>
10

>  <H_DONORS>
0

>  <ROTATABLE_BONDS>
7

>  <LOGP>
1.61

>  <LOGS>
-3.96

>  <TPSA>
130.25999

>  <PRICE>
N07

$$$$
AK-693/43460763
  MOE2011           3D

 68 71  0  0  1  0  0  0  0  0999 V2000
   -1.4100    1.5680   -1.1210 C   0  0  0  0  0  0  0  0  0  0  0  0
   -2.5930    2.0350   -0.3490 C   0  0  0  0  0  0  0  0  0  0  0  0
   -1.4090    0.3800   -1.7450 C   0  0  0  0  0  0  0  0  0  0  0  0
   -3.7940   -0.0670   -0.8740 C   0  0  0  0  0  0  0  0  0  0  0  0
   -2.6470    3.1740    0.2700 N   0  0  0  0  0  0  0  0  0  0  0  0
   -0.2930    2.3950   -1.1830 O   0  0  0  0  0  0  0  0  0  0  0  0
   -3.7600    1.1370   -0.2920 C   0  0  0  0  0  0  0  0  0  0  0  0
   -4.6090    1.5170    0.2650 H   0  0  0  0  0  0  0  0  0  0  0  0
   -2.6100   -0.4970   -1.6900 C   0  0  0  0  0  0  0  0  0  0  0  0
   -4.8380   -0.9720   -0.8880 N   0  0  0  0  0  0  0  0  0  0  0  0
   -4.7240   -1.7040   -1.5880 H   0  0  0  0  0  0  0  0  0  0  0  0
   -1.5030    3.9830    0.1940 C   0  0  0  0  0  0  0  0  0  0  0  0
   -0.3610    3.5930   -0.5150 C   0  0  0  0  0  0  0  0  0  0  0  0
   -6.0010   -1.0490   -0.1020 C   0  0  0  0  0  0  0  0  0  0  0  0
   -2.6600   -1.5600   -2.3080 O   0  0  0  0  0  0  0  0  0  0  0  0
   -6.0710   -0.7260    1.2640 C   0  0  0  0  0  0  0  0  0  0  0  0
   -0.2350   -0.1160   -2.5570 C   0  0  0  0  0  0  0  0  0  0  0  0
   -0.5600   -0.8360   -3.3180 H   0  0  0  0  0  0  0  0  0  0  0  0
    0.1840    0.7220   -3.1310 H   0  0  0  0  0  0  0  0  0  0  0  0
   -4.9280   -0.4120    1.9540 O   0  0  0  0  0  0  0  0  0  0  0  0
   -5.1450   -0.2830    2.8910 H   0  0  0  0  0  0  0  0  0  0  0  0
   -1.5010    5.2150    0.8510 C   0  0  0  0  0  0  0  0  0  0  0  0
   -2.3820    5.5270    1.4060 H   0  0  0  0  0  0  0  0  0  0  0  0
    0.7650    4.4160   -0.5690 C   0  0  0  0  0  0  0  0  0  0  0  0
    1.6460    4.1040   -1.1230 H   0  0  0  0  0  0  0  0  0  0  0  0
   -7.1920   -1.4370   -0.7410 C   0  0  0  0  0  0  0  0  0  0  0  0
   -7.1840   -1.6860   -1.8000 H   0  0  0  0  0  0  0  0  0  0  0  0
   -7.2830   -0.7750    1.9610 C   0  0  0  0  0  0  0  0  0  0  0  0
   -7.3360   -0.5290    3.0180 H   0  0  0  0  0  0  0  0  0  0  0  0
    0.8900   -0.7330   -1.7150 C   0  0  0  0  0  0  0  0  0  0  0  0
    1.7190   -0.9870   -2.3870 H   0  0  0  0  0  0  0  0  0  0  0  0
    1.2720    0.0210   -1.0170 H   0  0  0  0  0  0  0  0  0  0  0  0
    6.8000   -0.1530   -0.0550 C   0  0  0  0  0  0  0  0  0  0  0  0
    7.5800   -0.7300   -0.5660 H   0  0  0  0  0  0  0  0  0  0  0  0
    6.1730    0.3020   -0.8310 H   0  0  0  0  0  0  0  0  0  0  0  0
    5.9540   -1.0810    0.8180 C   0  0  0  0  0  0  0  0  0  0  0  0
    5.1830   -0.4900    1.3250 H   0  0  0  0  0  0  0  0  0  0  0  0
    6.5840   -1.5300    1.5950 H   0  0  0  0  0  0  0  0  0  0  0  0
    2.3010   -1.8650    0.8290 C   0  0  0  0  0  0  0  0  0  0  0  0
    2.7600   -0.9690    0.3970 H   0  0  0  0  0  0  0  0  0  0  0  0
    1.5320   -1.5120    1.5270 H   0  0  0  0  0  0  0  0  0  0  0  0
    3.3510   -2.6390    1.6310 C   0  0  0  0  0  0  0  0  0  0  0  0
    3.7380   -1.9860    2.4220 H   0  0  0  0  0  0  0  0  0  0  0  0
    2.8580   -3.4730    2.1460 H   0  0  0  0  0  0  0  0  0  0  0  0
    4.5230   -3.2030    0.8190 C   0  0  0  0  0  0  0  0  0  0  0  0
    5.2150   -3.6960    1.5130 H   0  0  0  0  0  0  0  0  0  0  0  0
    4.1550   -3.9920    0.1530 H   0  0  0  0  0  0  0  0  0  0  0  0
    5.3050   -2.1860   -0.0180 C   0  0  0  0  0  0  0  0  0  0  0  0
    6.0880   -2.7280   -0.5630 H   0  0  0  0  0  0  0  0  0  0  0  0
    4.6530   -1.7430   -0.7790 H   0  0  0  0  0  0  0  0  0  0  0  0
    0.4630   -1.9880   -0.9470 C   0  0  0  0  0  0  0  0  0  0  0  0
   -0.2890   -1.7330   -0.1920 H   0  0  0  0  0  0  0  0  0  0  0  0
   -0.0080   -2.6920   -1.6430 H   0  0  0  0  0  0  0  0  0  0  0  0
    1.6350   -2.7030   -0.2660 C   0  0  0  0  0  0  0  0  0  0  0  0
    1.2600   -3.6350    0.1740 H   0  0  0  0  0  0  0  0  0  0  0  0
    2.3710   -2.9860   -1.0270 H   0  0  0  0  0  0  0  0  0  0  0  0
   -0.3780    6.0440    0.8020 C   0  0  0  0  0  0  0  0  0  0  0  0
   -0.3870    7.0000    1.3180 H   0  0  0  0  0  0  0  0  0  0  0  0
    0.7550    5.6440    0.0910 C   0  0  0  0  0  0  0  0  0  0  0  0
    1.6280    6.2890    0.0530 H   0  0  0  0  0  0  0  0  0  0  0  0
   -8.4050   -1.4880   -0.0500 C   0  0  0  0  0  0  0  0  0  0  0  0
   -9.3130   -1.7830   -0.5680 H   0  0  0  0  0  0  0  0  0  0  0  0
    7.4520    0.9460    0.7680 C   0  0  0  0  0  0  0  0  0  0  0  0
    8.1130    0.5250    1.5330 H   0  0  0  0  0  0  0  0  0  0  0  0
    6.6970    1.5630    1.2680 H   0  0  0  0  0  0  0  0  0  0  0  0
    8.0510    1.5980    0.1240 H   0  0  0  0  0  0  0  0  0  0  0  0
   -8.4500   -1.1530    1.3000 C   0  0  0  0  0  0  0  0  0  0  0  0
   -9.3940   -1.1930    1.8390 H   0  0  0  0  0  0  0  0  0  0  0  0
  1  2  1  0  0  0  0
  1  3  2  0  0  0  0
  1  6  1  0  0  0  0
  2  5  2  0  0  0  0
  2  7  1  0  0  0  0
  3  9  1  0  0  0  0
  3 17  1  0  0  0  0
  4  7  2  0  0  0  0
  4  9  1  0  0  0  0
  4 10  1  0  0  0  0
  5 12  1  0  0  0  0
  6 13  1  0  0  0  0
  7  8  1  0  0  0  0
  9 15  2  0  0  0  0
 10 11  1  0  0  0  0
 10 14  1  0  0  0  0
 12 13  2  0  0  0  0
 12 22  1  0  0  0  0
 13 24  1  0  0  0  0
 14 16  2  0  0  0  0
 14 26  1  0  0  0  0
 16 20  1  0  0  0  0
 16 28  1  0  0  0  0
 17 18  1  0  0  0  0
 17 19  1  0  0  0  0
 17 30  1  0  0  0  0
 20 21  1  0  0  0  0
 22 23  1  0  0  0  0
 22 57  2  0  0  0  0
 24 25  1  0  0  0  0
 24 59  2  0  0  0  0
 26 27  1  0  0  0  0
 26 61  2  0  0  0  0
 28 29  1  0  0  0  0
 28 67  2  0  0  0  0
 30 31  1  0  0  0  0
 30 32  1  0  0  0  0
 30 51  1  0  0  0  0
 33 34  1  0  0  0  0
 33 35  1  0  0  0  0
 33 36  1  0  0  0  0
 33 63  1  0  0  0  0
 36 37  1  0  0  0  0
 36 38  1  0  0  0  0
 36 48  1  0  0  0  0
 39 40  1  0  0  0  0
 39 41  1  0  0  0  0
 39 42  1  0  0  0  0
 39 54  1  0  0  0  0
 42 43  1  0  0  0  0
 42 44  1  0  0  0  0
 42 45  1  0  0  0  0
 45 46  1  0  0  0  0
 45 47  1  0  0  0  0
 45 48  1  0  0  0  0
 48 49  1  0  0  0  0
 48 50  1  0  0  0  0
 51 52  1  0  0  0  0
 51 53  1  0  0  0  0
 51 54  1  0  0  0  0
 54 55  1  0  0  0  0
 54 56  1  0  0  0  0
 57 58  1  0  0  0  0
 57 59  1  0  0  0  0
 59 60  1  0  0  0  0
 61 62  1  0  0  0  0
 61 67  1  0  0  0  0
 63 64  1  0  0  0  0
 63 65  1  0  0  0  0
 63 66  1  0  0  0  0
 67 68  1  0  0  0  0
M  END
>  <IDNUMBER>
AK-693/43460763

>  <NAME>
Embelin, derivative of

>  <ADD_INFO>
http://www.specs.net/enter.php?specsid=AK-693/43460763

>  <H_ACCEPTORS>
3

>  <H_DONORS>
2

>  <ROTATABLE_BONDS>
12

>  <LOGP>
8.5100002

>  <LOGS>
-9.8100004

>  <TPSA>
70.919998

>  <PRICE>
N07

$$$$
AK-693/43460764
  MOE2011           3D

 64 65  0  0  1  0  0  0  0  0999 V2000
   -0.0680   -0.6830   -0.4450 C   0  0  0  0  0  0  0  0  0  0  0  0
    2.4980   -0.8220   -0.2650 C   0  0  0  0  0  0  0  0  0  0  0  0
    1.1520   -0.9670    0.3650 C   0  0  0  0  0  0  0  0  0  0  0  0
   -0.0320   -0.4860   -1.7850 C   0  0  0  0  0  0  0  0  0  0  0  0
    2.5390   -0.6430   -1.5850 C   0  0  0  0  0  0  0  0  0  0  0  0
    3.4750   -0.6140   -2.1280 H   0  0  0  0  0  0  0  0  0  0  0  0
    1.3430   -0.5250   -2.4420 C   0  0  0  0  0  0  0  0  0  0  0  0
    3.5480   -0.9850    0.6230 N   0  0  0  0  0  0  0  0  0  0  0  0
    3.2340   -1.3680    1.5170 H   0  0  0  0  0  0  0  0  0  0  0  0
    9.8660    0.7650   -0.4200 C   0  0  0  0  0  0  0  0  0  0  0  0
    9.1280   -0.1140    0.3570 N   0  0  0  0  0  0  0  0  0  0  0  0
    9.6480   -0.7120    0.9900 H   0  0  0  0  0  0  0  0  0  0  0  0
    1.0910   -1.3130    1.5460 O   0  0  0  0  0  0  0  0  0  0  0  0
    1.5400   -0.4540   -3.6560 O   0  0  0  0  0  0  0  0  0  0  0  0
    9.4380    1.5700   -1.2410 O   0  0  0  0  0  0  0  0  0  0  0  0
   -0.9940   -0.2770   -2.5800 O   0  5  0  0  0  0  0  0  0  0  0  0
    4.9180   -0.7050    0.5240 C   0  0  0  0  0  0  0  0  0  0  0  0
    7.7240   -0.2730    0.3710 C   0  0  0  0  0  0  0  0  0  0  0  0
   -1.3640   -0.6970    0.3540 C   0  0  0  0  0  0  0  0  0  0  0  0
   -2.2420   -0.7610   -0.2970 H   0  0  0  0  0  0  0  0  0  0  0  0
   -1.3940   -1.6240    0.9430 H   0  0  0  0  0  0  0  0  0  0  0  0
    5.4590    0.2390   -0.3530 C   0  0  0  0  0  0  0  0  0  0  0  0
    4.8130    0.8580   -0.9690 H   0  0  0  0  0  0  0  0  0  0  0  0
    5.8110   -1.4370    1.3190 C   0  0  0  0  0  0  0  0  0  0  0  0
    5.4350   -2.1940    2.0040 H   0  0  0  0  0  0  0  0  0  0  0  0
    7.1940   -1.2250    1.2460 C   0  0  0  0  0  0  0  0  0  0  0  0
    7.8420   -1.8200    1.8840 H   0  0  0  0  0  0  0  0  0  0  0  0
    6.8440    0.4570   -0.4280 C   0  0  0  0  0  0  0  0  0  0  0  0
    7.1960    1.2130   -1.1220 H   0  0  0  0  0  0  0  0  0  0  0  0
   11.3450    0.6360   -0.1570 C   0  0  0  0  0  0  0  0  0  0  0  0
   11.5520    0.8090    0.9030 H   0  0  0  0  0  0  0  0  0  0  0  0
   11.8930    1.3750   -0.7480 H   0  0  0  0  0  0  0  0  0  0  0  0
   11.6840   -0.3650   -0.4380 H   0  0  0  0  0  0  0  0  0  0  0  0
   -1.5300    0.4910    1.3140 C   0  0  0  0  0  0  0  0  0  0  0  0
   -2.3920    0.2970    1.9630 H   0  0  0  0  0  0  0  0  0  0  0  0
   -0.6670    0.5450    1.9900 H   0  0  0  0  0  0  0  0  0  0  0  0
   -7.4190   -1.9670    0.2660 C   0  0  0  0  0  0  0  0  0  0  0  0
   -6.7500   -2.2410    1.0890 H   0  0  0  0  0  0  0  0  0  0  0  0
   -8.4360   -1.9260    0.6730 H   0  0  0  0  0  0  0  0  0  0  0  0
   -7.0260   -0.5970   -0.2900 C   0  0  0  0  0  0  0  0  0  0  0  0
   -7.7000   -0.3270   -1.1120 H   0  0  0  0  0  0  0  0  0  0  0  0
   -6.0140   -0.6590   -0.7050 H   0  0  0  0  0  0  0  0  0  0  0  0
   -4.2490    1.7820    0.4900 C   0  0  0  0  0  0  0  0  0  0  0  0
   -4.2930    0.7350    0.8060 H   0  0  0  0  0  0  0  0  0  0  0  0
   -4.3000    2.4020    1.3930 H   0  0  0  0  0  0  0  0  0  0  0  0
   -5.4450    2.0910   -0.4140 C   0  0  0  0  0  0  0  0  0  0  0  0
   -5.3830    3.1360   -0.7440 H   0  0  0  0  0  0  0  0  0  0  0  0
   -5.3940    1.4810   -1.3230 H   0  0  0  0  0  0  0  0  0  0  0  0
   -6.7990    1.8920    0.2740 C   0  0  0  0  0  0  0  0  0  0  0  0
   -6.8770    2.5930    1.1140 H   0  0  0  0  0  0  0  0  0  0  0  0
   -7.5900    2.1710   -0.4340 H   0  0  0  0  0  0  0  0  0  0  0  0
   -7.0830    0.4790    0.7960 C   0  0  0  0  0  0  0  0  0  0  0  0
   -6.3840    0.2300    1.6030 H   0  0  0  0  0  0  0  0  0  0  0  0
   -8.0830    0.4800    1.2480 H   0  0  0  0  0  0  0  0  0  0  0  0
   -1.6900    1.8620    0.6480 C   0  0  0  0  0  0  0  0  0  0  0  0
   -1.7260    2.6210    1.4400 H   0  0  0  0  0  0  0  0  0  0  0  0
   -0.7970    2.0890    0.0540 H   0  0  0  0  0  0  0  0  0  0  0  0
   -2.9280    2.0350   -0.2390 C   0  0  0  0  0  0  0  0  0  0  0  0
   -2.9230    3.0610   -0.6290 H   0  0  0  0  0  0  0  0  0  0  0  0
   -2.8630    1.3770   -1.1100 H   0  0  0  0  0  0  0  0  0  0  0  0
   -7.3550   -3.0410   -0.8090 C   0  0  0  0  0  0  0  0  0  0  0  0
   -6.3430   -3.1300   -1.2140 H   0  0  0  0  0  0  0  0  0  0  0  0
   -8.0370   -2.8110   -1.6340 H   0  0  0  0  0  0  0  0  0  0  0  0
   -7.6410   -4.0110   -0.3920 H   0  0  0  0  0  0  0  0  0  0  0  0
  1  3  1  0  0  0  0
  1  4  2  0  0  0  0
  1 19  1  0  0  0  0
  2  3  1  0  0  0  0
  2  5  2  0  0  0  0
  2  8  1  0  0  0  0
  3 13  2  0  0  0  0
  4  7  1  0  0  0  0
  4 16  1  0  0  0  0
  5  6  1  0  0  0  0
  5  7  1  0  0  0  0
  7 14  2  0  0  0  0
  8  9  1  0  0  0  0
  8 17  1  0  0  0  0
 10 11  1  0  0  0  0
 10 15  2  0  0  0  0
 10 30  1  0  0  0  0
 11 12  1  0  0  0  0
 11 18  1  0  0  0  0
 17 22  1  0  0  0  0
 17 24  2  0  0  0  0
 18 26  2  0  0  0  0
 18 28  1  0  0  0  0
 19 20  1  0  0  0  0
 19 21  1  0  0  0  0
 19 34  1  0  0  0  0
 22 23  1  0  0  0  0
 22 28  2  0  0  0  0
 24 25  1  0  0  0  0
 24 26  1  0  0  0  0
 26 27  1  0  0  0  0
 28 29  1  0  0  0  0
 30 31  1  0  0  0  0
 30 32  1  0  0  0  0
 30 33  1  0  0  0  0
 34 35  1  0  0  0  0
 34 36  1  0  0  0  0
 34 55  1  0  0  0  0
 37 38  1  0  0  0  0
 37 39  1  0  0  0  0
 37 40  1  0  0  0  0
 37 61  1  0  0  0  0
 40 41  1  0  0  0  0
 40 42  1  0  0  0  0
 40 52  1  0  0  0  0
 43 44  1  0  0  0  0
 43 45  1  0  0  0  0
 43 46  1  0  0  0  0
 43 58  1  0  0  0  0
 46 47  1  0  0  0  0
 46 48  1  0  0  0  0
 46 49  1  0  0  0  0
 49 50  1  0  0  0  0
 49 51  1  0  0  0  0
 49 52  1  0  0  0  0
 52 53  1  0  0  0  0
 52 54  1  0  0  0  0
 55 56  1  0  0  0  0
 55 57  1  0  0  0  0
 55 58  1  0  0  0  0
 58 59  1  0  0  0  0
 58 60  1  0  0  0  0
 61 62  1  0  0  0  0
 61 63  1  0  0  0  0
 61 64  1  0  0  0  0
M  CHG  1  16  -1
M  END
>  <IDNUMBER>
AK-693/43460764

>  <NAME>
Embelin, derivative of

>  <ADD_INFO>
http://www.specs.net/enter.php?specsid=AK-693/43460764

>  <H_ACCEPTORS>
6

>  <H_DONORS>
3

>  <ROTATABLE_BONDS>
14

>  <LOGP>
5.5300002

>  <LOGS>
-7.04

>  <TPSA>
95.5

>  <PRICE>
N07

$$$$
AK-693/43460765
  MOE2011           3D

 50 50  0  0  1  0  0  0  0  0999 V2000
   -3.8760    0.9610    0.7470 C   0  0  0  0  0  0  0  0  0  0  0  0
   -4.5850    1.8730    0.0370 C   0  0  0  0  0  0  0  0  0  0  0  0
   -4.1960   -0.4960    0.7650 C   0  0  0  0  0  0  0  0  0  0  0  0
   -5.3310   -0.9940   -0.0680 C   0  0  0  0  0  0  0  0  0  0  0  0
   -6.0240   -0.1080   -0.7830 C   0  0  0  0  0  0  0  0  0  0  0  0
   -6.8570   -0.4140   -1.4040 H   0  0  0  0  0  0  0  0  0  0  0  0
   -5.7420    1.3380   -0.8010 C   0  0  0  0  0  0  0  0  0  0  0  0
   -3.5530   -1.3000    1.4420 O   0  0  0  0  0  0  0  0  0  0  0  0
   -6.4720    2.0340   -1.5090 O   0  0  0  0  0  0  0  0  0  0  0  0
   -5.5530   -2.3580   -0.0150 N   0  0  0  0  0  0  0  0  0  0  0  0
   -4.9030   -2.8490    0.6020 H   0  0  0  0  0  0  0  0  0  0  0  0
   -4.4110    3.1260   -0.0310 O   0  5  0  0  0  0  0  0  0  0  0  0
   -2.7010    1.3650    1.6250 C   0  0  0  0  0  0  0  0  0  0  0  0
   -2.9270    2.3170    2.1230 H   0  0  0  0  0  0  0  0  0  0  0  0
   -2.5680    0.6570    2.4520 H   0  0  0  0  0  0  0  0  0  0  0  0
   -6.5560   -3.1250   -0.7040 C   0  0  0  0  0  0  0  0  0  0  0  0
   -6.4420   -3.0310   -1.7880 H   0  0  0  0  0  0  0  0  0  0  0  0
   -7.5610   -2.7970   -0.4210 H   0  0  0  0  0  0  0  0  0  0  0  0
   -6.4590   -4.1830   -0.4440 H   0  0  0  0  0  0  0  0  0  0  0  0
   -1.3700    1.5230    0.8720 C   0  0  0  0  0  0  0  0  0  0  0  0
   -1.4730    2.2800    0.0860 H   0  0  0  0  0  0  0  0  0  0  0  0
   -0.6350    1.9130    1.5860 H   0  0  0  0  0  0  0  0  0  0  0  0
    6.3760   -1.0480   -0.1400 C   0  0  0  0  0  0  0  0  0  0  0  0
    7.2280   -1.5610   -0.6050 H   0  0  0  0  0  0  0  0  0  0  0  0
    6.7240   -0.6860    0.8340 H   0  0  0  0  0  0  0  0  0  0  0  0
    5.9720    0.1200   -1.0440 C   0  0  0  0  0  0  0  0  0  0  0  0
    5.2600   -0.2050   -1.8110 H   0  0  0  0  0  0  0  0  0  0  0  0
    6.8710    0.4380   -1.5890 H   0  0  0  0  0  0  0  0  0  0  0  0
    1.6530    0.7700    0.3780 C   0  0  0  0  0  0  0  0  0  0  0  0
    1.4800    1.7440    0.8500 H   0  0  0  0  0  0  0  0  0  0  0  0
    1.7550    0.0310    1.1820 H   0  0  0  0  0  0  0  0  0  0  0  0
    2.9530    0.8320   -0.4290 C   0  0  0  0  0  0  0  0  0  0  0  0
    3.1230   -0.1360   -0.9110 H   0  0  0  0  0  0  0  0  0  0  0  0
    2.8520    1.5770   -1.2270 H   0  0  0  0  0  0  0  0  0  0  0  0
    4.1400    1.1960    0.4650 C   0  0  0  0  0  0  0  0  0  0  0  0
    3.9250    2.1480    0.9670 H   0  0  0  0  0  0  0  0  0  0  0  0
    4.2590    0.4560    1.2630 H   0  0  0  0  0  0  0  0  0  0  0  0
    5.4520    1.3580   -0.3040 C   0  0  0  0  0  0  0  0  0  0  0  0
    5.3300    2.1670   -1.0360 H   0  0  0  0  0  0  0  0  0  0  0  0
    6.2240    1.6990    0.3980 H   0  0  0  0  0  0  0  0  0  0  0  0
   -0.8460    0.2210    0.2600 C   0  0  0  0  0  0  0  0  0  0  0  0
   -0.7120   -0.5320    1.0460 H   0  0  0  0  0  0  0  0  0  0  0  0
   -1.5870   -0.1790   -0.4420 H   0  0  0  0  0  0  0  0  0  0  0  0
    0.4660    0.3980   -0.5120 C   0  0  0  0  0  0  0  0  0  0  0  0
    0.6880   -0.5450   -1.0260 H   0  0  0  0  0  0  0  0  0  0  0  0
    0.3340    1.1590   -1.2910 H   0  0  0  0  0  0  0  0  0  0  0  0
    5.2760   -2.0820    0.0500 C   0  0  0  0  0  0  0  0  0  0  0  0
    4.9300   -2.4690   -0.9140 H   0  0  0  0  0  0  0  0  0  0  0  0
    4.4160   -1.6750    0.5850 H   0  0  0  0  0  0  0  0  0  0  0  0
    5.6560   -2.9280    0.6330 H   0  0  0  0  0  0  0  0  0  0  0  0
  1  2  2  0  0  0  0
  1  3  1  0  0  0  0
  1 13  1  0  0  0  0
  2  7  1  0  0  0  0
  2 12  1  0  0  0  0
  3  4  1  0  0  0  0
  3  8  2  0  0  0  0
  4  5  2  0  0  0  0
  4 10  1  0  0  0  0
  5  6  1  0  0  0  0
  5  7  1  0  0  0  0
  7  9  2  0  0  0  0
 10 11  1  0  0  0  0
 10 16  1  0  0  0  0
 13 14  1  0  0  0  0
 13 15  1  0  0  0  0
 13 20  1  0  0  0  0
 16 17  1  0  0  0  0
 16 18  1  0  0  0  0
 16 19  1  0  0  0  0
 20 21  1  0  0  0  0
 20 22  1  0  0  0  0
 20 41  1  0  0  0  0
 23 24  1  0  0  0  0
 23 25  1  0  0  0  0
 23 26  1  0  0  0  0
 23 47  1  0  0  0  0
 26 27  1  0  0  0  0
 26 28  1  0  0  0  0
 26 38  1  0  0  0  0
 29 30  1  0  0  0  0
 29 31  1  0  0  0  0
 29 32  1  0  0  0  0
 29 44  1  0  0  0  0
 32 33  1  0  0  0  0
 32 34  1  0  0  0  0
 32 35  1  0  0  0  0
 35 36  1  0  0  0  0
 35 37  1  0  0  0  0
 35 38  1  0  0  0  0
 38 39  1  0  0  0  0
 38 40  1  0  0  0  0
 41 42  1  0  0  0  0
 41 43  1  0  0  0  0
 41 44  1  0  0  0  0
 44 45  1  0  0  0  0
 44 46  1  0  0  0  0
 47 48  1  0  0  0  0
 47 49  1  0  0  0  0
 47 50  1  0  0  0  0
M  CHG  1  12  -1
M  END
>  <IDNUMBER>
AK-693/43460765

>  <NAME>
Embelin, derivative of

>  <ADD_INFO>
http://www.specs.net/enter.php?specsid=AK-693/43460765

>  <H_ACCEPTORS>
4

>  <H_DONORS>
2

>  <ROTATABLE_BONDS>
11

>  <LOGP>
4.6300001

>  <LOGS>
-5.4000001

>  <TPSA>
66.400002

>  <PRICE>
N07

$$$$
AK-693/43460766
  MOE2011           3D

 63 64  0  0  1  0  0  0  0  0999 V2000
   -2.0900   -1.0060   -0.6610 C   0  0  0  0  0  0  0  0  0  0  0  0
   -2.0850   -2.0430   -1.5330 C   0  0  0  0  0  0  0  0  0  0  0  0
   -3.0980   -0.8620    0.4350 C   0  0  0  0  0  0  0  0  0  0  0  0
   -4.3500   -1.6850    0.3450 C   0  0  0  0  0  0  0  0  0  0  0  0
   -4.3090   -2.7480   -0.4620 C   0  0  0  0  0  0  0  0  0  0  0  0
   -5.1510   -3.4240   -0.5500 H   0  0  0  0  0  0  0  0  0  0  0  0
   -3.1530   -3.1020   -1.3060 C   0  0  0  0  0  0  0  0  0  0  0  0
   -2.8910   -0.0960    1.3740 O   0  0  0  0  0  0  0  0  0  0  0  0
   -3.1470   -4.2260   -1.8060 O   0  0  0  0  0  0  0  0  0  0  0  0
   -5.4860   -1.3740    1.0840 N   0  0  0  0  0  0  0  0  0  0  0  0
   -6.2220   -2.0740    1.0610 H   0  0  0  0  0  0  0  0  0  0  0  0
   -1.3050   -2.2640   -2.5050 O   0  5  0  0  0  0  0  0  0  0  0  0
   -1.0770    0.1250   -0.7470 C   0  0  0  0  0  0  0  0  0  0  0  0
   -0.9360    0.4010   -1.8010 H   0  0  0  0  0  0  0  0  0  0  0  0
   -1.4730    1.0370   -0.2830 H   0  0  0  0  0  0  0  0  0  0  0  0
   -5.7890   -0.1780    1.8510 C   0  0  0  0  0  0  0  0  0  0  0  0
   -6.4950   -0.4740    2.6360 H   0  0  0  0  0  0  0  0  0  0  0  0
   -4.9210    0.2240    2.3800 H   0  0  0  0  0  0  0  0  0  0  0  0
   -5.5720    1.5840    0.0050 C   0  0  0  0  0  0  0  0  0  0  0  0
   -6.4800    0.8880    0.9900 C   0  0  0  0  0  0  0  0  0  0  0  0
   -7.3300    0.4430    0.4550 H   0  0  0  0  0  0  0  0  0  0  0  0
   -6.9150    1.6500    1.6500 H   0  0  0  0  0  0  0  0  0  0  0  0
   -5.5360    1.1830   -1.3380 C   0  0  0  0  0  0  0  0  0  0  0  0
   -6.1680    0.3690   -1.6850 H   0  0  0  0  0  0  0  0  0  0  0  0
   -4.7280    2.6210    0.4260 C   0  0  0  0  0  0  0  0  0  0  0  0
   -4.7240    2.9370    1.4660 H   0  0  0  0  0  0  0  0  0  0  0  0
    0.3000   -0.1950   -0.1450 C   0  0  0  0  0  0  0  0  0  0  0  0
    0.7110   -1.0820   -0.6370 H   0  0  0  0  0  0  0  0  0  0  0  0
    0.9720    0.6400   -0.3770 H   0  0  0  0  0  0  0  0  0  0  0  0
    7.6640    0.7690   -1.3110 C   0  0  0  0  0  0  0  0  0  0  0  0
    8.0670   -0.2040   -1.6120 H   0  0  0  0  0  0  0  0  0  0  0  0
    7.1010    1.1660   -2.1640 H   0  0  0  0  0  0  0  0  0  0  0  0
    6.7330    0.5960   -0.1110 C   0  0  0  0  0  0  0  0  0  0  0  0
    6.3390    1.5740    0.1930 H   0  0  0  0  0  0  0  0  0  0  0  0
    7.2980    0.1980    0.7400 H   0  0  0  0  0  0  0  0  0  0  0  0
    0.2770   -0.4110    1.3680 C   0  0  0  0  0  0  0  0  0  0  0  0
   -0.2600    0.4210    1.8390 H   0  0  0  0  0  0  0  0  0  0  0  0
   -0.2790   -1.3250    1.6070 H   0  0  0  0  0  0  0  0  0  0  0  0
    1.6680   -0.4870    2.0120 C   0  0  0  0  0  0  0  0  0  0  0  0
    2.2010    0.4550    1.8530 H   0  0  0  0  0  0  0  0  0  0  0  0
    1.5080   -0.5650    3.0960 H   0  0  0  0  0  0  0  0  0  0  0  0
    2.5120   -1.6930    1.5840 C   0  0  0  0  0  0  0  0  0  0  0  0
    3.1140   -2.0180    2.4430 H   0  0  0  0  0  0  0  0  0  0  0  0
    1.8540   -2.5350    1.3390 H   0  0  0  0  0  0  0  0  0  0  0  0
    3.4640   -1.4430    0.4090 C   0  0  0  0  0  0  0  0  0  0  0  0
    3.8720   -2.4120    0.0930 H   0  0  0  0  0  0  0  0  0  0  0  0
    2.9220   -1.0410   -0.4510 H   0  0  0  0  0  0  0  0  0  0  0  0
    4.6310   -0.5140    0.7560 C   0  0  0  0  0  0  0  0  0  0  0  0
    4.2580    0.4700    1.0600 H   0  0  0  0  0  0  0  0  0  0  0  0
    5.1890   -0.9250    1.6060 H   0  0  0  0  0  0  0  0  0  0  0  0
    5.5720   -0.3430   -0.4400 C   0  0  0  0  0  0  0  0  0  0  0  0
    5.9640   -1.3220   -0.7410 H   0  0  0  0  0  0  0  0  0  0  0  0
    5.0090    0.0550   -1.2940 H   0  0  0  0  0  0  0  0  0  0  0  0
    8.8160    1.7100   -0.9930 C   0  0  0  0  0  0  0  0  0  0  0  0
    9.4190    1.3250   -0.1640 H   0  0  0  0  0  0  0  0  0  0  0  0
    8.4470    2.7030   -0.7180 H   0  0  0  0  0  0  0  0  0  0  0  0
    9.4670    1.8180   -1.8660 H   0  0  0  0  0  0  0  0  0  0  0  0
   -3.8670    3.2440   -0.4780 C   0  0  0  0  0  0  0  0  0  0  0  0
   -3.2080    4.0380   -0.1390 H   0  0  0  0  0  0  0  0  0  0  0  0
   -4.6710    1.8050   -2.2400 C   0  0  0  0  0  0  0  0  0  0  0  0
   -4.6370    1.4740   -3.2740 H   0  0  0  0  0  0  0  0  0  0  0  0
   -3.8380    2.8360   -1.8100 C   0  0  0  0  0  0  0  0  0  0  0  0
   -3.1570    3.3120   -2.5110 H   0  0  0  0  0  0  0  0  0  0  0  0
  1  2  2  0  0  0  0
  1  3  1  0  0  0  0
  1 13  1  0  0  0  0
  2  7  1  0  0  0  0
  2 12  1  0  0  0  0
  3  4  1  0  0  0  0
  3  8  2  0  0  0  0
  4  5  2  0  0  0  0
  4 10  1  0  0  0  0
  5  6  1  0  0  0  0
  5  7  1  0  0  0  0
  7  9  2  0  0  0  0
 10 11  1  0  0  0  0
 10 16  1  0  0  0  0
 13 14  1  0  0  0  0
 13 15  1  0  0  0  0
 13 27  1  0  0  0  0
 16 17  1  0  0  0  0
 16 18  1  0  0  0  0
 16 20  1  0  0  0  0
 19 20  1  0  0  0  0
 19 23  2  0  0  0  0
 19 25  1  0  0  0  0
 20 21  1  0  0  0  0
 20 22  1  0  0  0  0
 23 24  1  0  0  0  0
 23 60  1  0  0  0  0
 25 26  1  0  0  0  0
 25 58  2  0  0  0  0
 27 28  1  0  0  0  0
 27 29  1  0  0  0  0
 27 36  1  0  0  0  0
 30 31  1  0  0  0  0
 30 32  1  0  0  0  0
 30 33  1  0  0  0  0
 30 54  1  0  0  0  0
 33 34  1  0  0  0  0
 33 35  1  0  0  0  0
 33 51  1  0  0  0  0
 36 37  1  0  0  0  0
 36 38  1  0  0  0  0
 36 39  1  0  0  0  0
 39 40  1  0  0  0  0
 39 41  1  0  0  0  0
 39 42  1  0  0  0  0
 42 43  1  0  0  0  0
 42 44  1  0  0  0  0
 42 45  1  0  0  0  0
 45 46  1  0  0  0  0
 45 47  1  0  0  0  0
 45 48  1  0  0  0  0
 48 49  1  0  0  0  0
 48 50  1  0  0  0  0
 48 51  1  0  0  0  0
 51 52  1  0  0  0  0
 51 53  1  0  0  0  0
 54 55  1  0  0  0  0
 54 56  1  0  0  0  0
 54 57  1  0  0  0  0
 58 59  1  0  0  0  0
 58 62  1  0  0  0  0
 60 61  1  0  0  0  0
 60 62  2  0  0  0  0
 62 63  1  0  0  0  0
M  CHG  1  12  -1
M  END
>  <IDNUMBER>
AK-693/43460766

>  <NAME>
Embelin, derivative of

>  <ADD_INFO>
http://www.specs.net/enter.php?specsid=AK-693/43460766

>  <H_ACCEPTORS>
4

>  <H_DONORS>
2

>  <ROTATABLE_BONDS>
14

>  <LOGP>
6.6100001

>  <LOGS>
-7.7399998

>  <TPSA>
66.400002

>  <PRICE>
N07

$$$$
AK-693/43460767
  MOE2011           3D

 59 60  0  0  1  0  0  0  0  0999 V2000
   -1.7590    2.3400    0.5240 C   0  0  0  0  0  0  0  0  0  0  0  0
   -4.2040    2.2870   -0.2550 C   0  0  0  0  0  0  0  0  0  0  0  0
   -3.1290    1.7450    0.6370 C   0  0  0  0  0  0  0  0  0  0  0  0
   -1.5110    3.5340   -0.0660 C   0  0  0  0  0  0  0  0  0  0  0  0
   -3.9800    3.4970   -0.7780 C   0  0  0  0  0  0  0  0  0  0  0  0
   -4.7350    3.9960   -1.3760 H   0  0  0  0  0  0  0  0  0  0  0  0
   -2.7260    4.2590   -0.6260 C   0  0  0  0  0  0  0  0  0  0  0  0
   -5.4160    1.6330   -0.4250 N   0  0  0  0  0  0  0  0  0  0  0  0
   -6.2010    2.2430   -0.6260 H   0  0  0  0  0  0  0  0  0  0  0  0
   -9.0130   -1.7600   -0.0520 C   0  0  0  0  0  0  0  0  0  0  0  0
   -7.5480   -1.4240   -0.2250 C   0  0  0  0  0  0  0  0  0  0  0  0
   -3.3490    0.8480    1.4490 O   0  0  0  0  0  0  0  0  0  0  0  0
   -5.7590    0.2660   -0.4140 C   0  0  0  0  0  0  0  0  0  0  0  0
   -2.7360    5.4350   -0.9920 O   0  0  0  0  0  0  0  0  0  0  0  0
   -7.1120   -0.0840   -0.2400 C   0  0  0  0  0  0  0  0  0  0  0  0
   -7.8570    0.7000   -0.1110 H   0  0  0  0  0  0  0  0  0  0  0  0
   -9.8180   -0.7830    0.0700 O   0  0  0  0  0  0  0  0  0  0  0  0
   -0.4080    4.1380   -0.2090 O   0  5  0  0  0  0  0  0  0  0  0  0
   -0.6640    1.5110    1.1800 C   0  0  0  0  0  0  0  0  0  0  0  0
    0.2230    2.1240    1.3760 H   0  0  0  0  0  0  0  0  0  0  0  0
   -0.9980    1.1730    2.1690 H   0  0  0  0  0  0  0  0  0  0  0  0
   -9.3310   -2.9910   -0.0450 O   0  5  0  0  0  0  0  0  0  0  0  0
   -6.5880   -2.4330   -0.3780 C   0  0  0  0  0  0  0  0  0  0  0  0
   -6.8950   -3.4770   -0.3680 H   0  0  0  0  0  0  0  0  0  0  0  0
   -5.2410   -2.1080   -0.5430 C   0  0  0  0  0  0  0  0  0  0  0  0
   -4.5040   -2.8970   -0.6600 H   0  0  0  0  0  0  0  0  0  0  0  0
   -4.8330   -0.7700   -0.5600 C   0  0  0  0  0  0  0  0  0  0  0  0
   -3.7800   -0.5560   -0.7080 H   0  0  0  0  0  0  0  0  0  0  0  0
   -0.2720    0.3060    0.3170 C   0  0  0  0  0  0  0  0  0  0  0  0
   -1.1680   -0.2720    0.0580 H   0  0  0  0  0  0  0  0  0  0  0  0
    0.1590    0.6520   -0.6310 H   0  0  0  0  0  0  0  0  0  0  0  0
    6.5070   -1.0970   -2.4480 C   0  0  0  0  0  0  0  0  0  0  0  0
    5.5250   -1.3160   -2.8830 H   0  0  0  0  0  0  0  0  0  0  0  0
    7.0670   -0.5300   -3.2000 H   0  0  0  0  0  0  0  0  0  0  0  0
    6.3410   -0.2200   -1.2050 C   0  0  0  0  0  0  0  0  0  0  0  0
    5.8990    0.7350   -1.5180 H   0  0  0  0  0  0  0  0  0  0  0  0
    7.3270    0.0110   -0.7840 H   0  0  0  0  0  0  0  0  0  0  0  0
    5.2090    0.1240    1.0250 C   0  0  0  0  0  0  0  0  0  0  0  0
    4.6870    1.0140    0.6540 H   0  0  0  0  0  0  0  0  0  0  0  0
    6.1760    0.4740    1.4100 H   0  0  0  0  0  0  0  0  0  0  0  0
    5.4550   -0.8520   -0.1280 C   0  0  0  0  0  0  0  0  0  0  0  0
    5.9290   -1.7590    0.2630 H   0  0  0  0  0  0  0  0  0  0  0  0
    4.5010   -1.1480   -0.5790 H   0  0  0  0  0  0  0  0  0  0  0  0
    0.7100   -0.6440    1.0100 C   0  0  0  0  0  0  0  0  0  0  0  0
    0.2820   -0.9830    1.9610 H   0  0  0  0  0  0  0  0  0  0  0  0
    0.8240   -1.5350    0.3800 H   0  0  0  0  0  0  0  0  0  0  0  0
    2.0900   -0.0280    1.2530 C   0  0  0  0  0  0  0  0  0  0  0  0
    2.4840    0.3500    0.3030 H   0  0  0  0  0  0  0  0  0  0  0  0
    2.0100    0.8230    1.9380 H   0  0  0  0  0  0  0  0  0  0  0  0
    3.0510   -1.0600    1.8480 C   0  0  0  0  0  0  0  0  0  0  0  0
    2.6130   -1.4660    2.7690 H   0  0  0  0  0  0  0  0  0  0  0  0
    3.1590   -1.9080    1.1620 H   0  0  0  0  0  0  0  0  0  0  0  0
    4.4300   -0.4890    2.1930 C   0  0  0  0  0  0  0  0  0  0  0  0
    4.3130    0.2760    2.9700 H   0  0  0  0  0  0  0  0  0  0  0  0
    5.0330   -1.2900    2.6380 H   0  0  0  0  0  0  0  0  0  0  0  0
    7.2420   -2.4010   -2.1780 C   0  0  0  0  0  0  0  0  0  0  0  0
    6.6620   -3.0590   -1.5240 H   0  0  0  0  0  0  0  0  0  0  0  0
    8.2130   -2.2140   -1.7100 H   0  0  0  0  0  0  0  0  0  0  0  0
    7.4140   -2.9360   -3.1170 H   0  0  0  0  0  0  0  0  0  0  0  0
  1  3  1  0  0  0  0
  1  4  2  0  0  0  0
  1 19  1  0  0  0  0
  2  3  1  0  0  0  0
  2  5  2  0  0  0  0
  2  8  1  0  0  0  0
  3 12  2  0  0  0  0
  4  7  1  0  0  0  0
  4 18  1  0  0  0  0
  5  6  1  0  0  0  0
  5  7  1  0  0  0  0
  7 14  2  0  0  0  0
  8  9  1  0  0  0  0
  8 13  1  0  0  0  0
 10 11  1  0  0  0  0
 10 17  2  0  0  0  0
 10 22  1  0  0  0  0
 11 15  1  0  0  0  0
 11 23  2  0  0  0  0
 13 15  2  0  0  0  0
 13 27  1  0  0  0  0
 15 16  1  0  0  0  0
 19 20  1  0  0  0  0
 19 21  1  0  0  0  0
 19 29  1  0  0  0  0
 23 24  1  0  0  0  0
 23 25  1  0  0  0  0
 25 26  1  0  0  0  0
 25 27  2  0  0  0  0
 27 28  1  0  0  0  0
 29 30  1  0  0  0  0
 29 31  1  0  0  0  0
 29 44  1  0  0  0  0
 32 33  1  0  0  0  0
 32 34  1  0  0  0  0
 32 35  1  0  0  0  0
 32 56  1  0  0  0  0
 35 36  1  0  0  0  0
 35 37  1  0  0  0  0
 35 41  1  0  0  0  0
 38 39  1  0  0  0  0
 38 40  1  0  0  0  0
 38 41  1  0  0  0  0
 38 53  1  0  0  0  0
 41 42  1  0  0  0  0
 41 43  1  0  0  0  0
 44 45  1  0  0  0  0
 44 46  1  0  0  0  0
 44 47  1  0  0  0  0
 47 48  1  0  0  0  0
 47 49  1  0  0  0  0
 47 50  1  0  0  0  0
 50 51  1  0  0  0  0
 50 52  1  0  0  0  0
 50 53  1  0  0  0  0
 53 54  1  0  0  0  0
 53 55  1  0  0  0  0
 56 57  1  0  0  0  0
 56 58  1  0  0  0  0
 56 59  1  0  0  0  0
M  CHG  1  18  -1
M  CHG  1  22  -1
M  END
>  <IDNUMBER>
AK-693/43460767

>  <NAME>
Embelin, derivative of

>  <ADD_INFO>
http://www.specs.net/enter.php?specsid=AK-693/43460767

>  <H_ACCEPTORS>
6

>  <H_DONORS>
3

>  <ROTATABLE_BONDS>
13

>  <LOGP>
6.3099999

>  <LOGS>
-7.5999999

>  <TPSA>
103.7

>  <PRICE>
N07

$$$$
AK-693/43460768
  MOE2011           3D

 60 62  0  0  0  0  0  0  0  0999 V2000
   -3.5010   -0.1900    0.3840 N   0  0  0  0  0  0  0  0  0  0  0  0
   -3.0890    1.0940    0.3500 C   0  0  0  0  0  0  0  0  0  0  0  0
   -1.7670    1.4370    0.7010 C   0  0  0  0  0  0  0  0  0  0  0  0
   -3.9940    2.1050   -0.0520 C   0  0  0  0  0  0  0  0  0  0  0  0
   -5.2610    1.8200   -0.3970 N   0  0  0  0  0  0  0  0  0  0  0  0
   -1.3690    2.7760    0.6160 C   0  0  0  0  0  0  0  0  0  0  0  0
   -4.7660   -0.4780    0.0310 C   0  0  0  0  0  0  0  0  0  0  0  0
   -3.5770    3.4250   -0.1020 C   0  0  0  0  0  0  0  0  0  0  0  0
   -4.2710    4.2020   -0.4090 H   0  0  0  0  0  0  0  0  0  0  0  0
   -2.2750    3.7540    0.2250 C   0  0  0  0  0  0  0  0  0  0  0  0
   -5.6530    0.5370   -0.3620 C   0  0  0  0  0  0  0  0  0  0  0  0
   -5.2090   -1.7970    0.0500 C   0  0  0  0  0  0  0  0  0  0  0  0
   -4.5130   -2.5730    0.3640 H   0  0  0  0  0  0  0  0  0  0  0  0
   -6.9530    0.2000   -0.7190 C   0  0  0  0  0  0  0  0  0  0  0  0
   -7.6420    0.9860   -1.0180 H   0  0  0  0  0  0  0  0  0  0  0  0
   -0.1050    3.2280    0.8900 O   0  0  0  0  0  0  0  0  0  0  0  0
    0.4870    2.4730    1.0400 H   0  0  0  0  0  0  0  0  0  0  0  0
   -1.8700    5.0560    0.1550 O   0  0  0  0  0  0  0  0  0  0  0  0
   -0.9280    5.0250    0.4240 H   0  0  0  0  0  0  0  0  0  0  0  0
   -6.5140   -2.1420   -0.3240 C   0  0  0  0  0  0  0  0  0  0  0  0
   -0.8030    0.3490    1.1320 C   0  0  0  0  0  0  0  0  0  0  0  0
   -0.1500    0.7410    1.9190 H   0  0  0  0  0  0  0  0  0  0  0  0
   -1.3460   -0.4750    1.6110 H   0  0  0  0  0  0  0  0  0  0  0  0
   -7.3900   -1.1250   -0.6990 C   0  0  0  0  0  0  0  0  0  0  0  0
   -8.4160   -1.3530   -0.9790 H   0  0  0  0  0  0  0  0  0  0  0  0
   -6.9750   -3.5670   -0.2660 C   0  0  0  0  0  0  0  0  0  0  0  0
   -7.7380   -3.7610   -1.0270 H   0  0  0  0  0  0  0  0  0  0  0  0
   -7.3950   -3.7840    0.7210 H   0  0  0  0  0  0  0  0  0  0  0  0
   -6.1440   -4.2550   -0.4570 H   0  0  0  0  0  0  0  0  0  0  0  0
    0.0080   -0.1810   -0.0540 C   0  0  0  0  0  0  0  0  0  0  0  0
   -0.6810   -0.5820   -0.8090 H   0  0  0  0  0  0  0  0  0  0  0  0
    0.5520    0.6380   -0.5420 H   0  0  0  0  0  0  0  0  0  0  0  0
    5.7240    1.2120   -1.7120 C   0  0  0  0  0  0  0  0  0  0  0  0
    6.4250    1.7300   -2.3780 H   0  0  0  0  0  0  0  0  0  0  0  0
    4.9950    0.7150   -2.3600 H   0  0  0  0  0  0  0  0  0  0  0  0
    6.5090    0.1800   -0.8990 C   0  0  0  0  0  0  0  0  0  0  0  0
    7.2920    0.6980   -0.3310 H   0  0  0  0  0  0  0  0  0  0  0  0
    7.0280   -0.4890   -1.5960 H   0  0  0  0  0  0  0  0  0  0  0  0
    3.1810   -1.8700    1.5300 C   0  0  0  0  0  0  0  0  0  0  0  0
    3.9220   -1.4440    2.2180 H   0  0  0  0  0  0  0  0  0  0  0  0
    2.6850   -2.6760    2.0860 H   0  0  0  0  0  0  0  0  0  0  0  0
    3.9080   -2.4900    0.3320 C   0  0  0  0  0  0  0  0  0  0  0  0
    4.6530   -3.2010    0.7130 H   0  0  0  0  0  0  0  0  0  0  0  0
    3.1990   -3.0880   -0.2530 H   0  0  0  0  0  0  0  0  0  0  0  0
    4.6030   -1.5020   -0.6100 C   0  0  0  0  0  0  0  0  0  0  0  0
    5.0620   -2.0760   -1.4250 H   0  0  0  0  0  0  0  0  0  0  0  0
    3.8550   -0.8510   -1.0750 H   0  0  0  0  0  0  0  0  0  0  0  0
    5.6840   -0.6650    0.0780 C   0  0  0  0  0  0  0  0  0  0  0  0
    5.2380   -0.0160    0.8380 H   0  0  0  0  0  0  0  0  0  0  0  0
    6.3720   -1.3360    0.6090 H   0  0  0  0  0  0  0  0  0  0  0  0
    0.9950   -1.2890    0.3270 C   0  0  0  0  0  0  0  0  0  0  0  0
    0.4640   -2.1000    0.8380 H   0  0  0  0  0  0  0  0  0  0  0  0
    1.3940   -1.7070   -0.6040 H   0  0  0  0  0  0  0  0  0  0  0  0
    2.1480   -0.7880    1.2000 C   0  0  0  0  0  0  0  0  0  0  0  0
    2.6390    0.0640    0.7170 H   0  0  0  0  0  0  0  0  0  0  0  0
    1.7500   -0.4150    2.1510 H   0  0  0  0  0  0  0  0  0  0  0  0
    5.0180    2.2520   -0.8560 C   0  0  0  0  0  0  0  0  0  0  0  0
    5.7220    2.7530   -0.1840 H   0  0  0  0  0  0  0  0  0  0  0  0
    4.2230    1.8030   -0.2550 H   0  0  0  0  0  0  0  0  0  0  0  0
    4.5590    3.0140   -1.4950 H   0  0  0  0  0  0  0  0  0  0  0  0
  1  2  2  0  0  0  0
  1  7  1  0  0  0  0
  2  3  1  0  0  0  0
  2  4  1  0  0  0  0
  3  6  2  0  0  0  0
  3 21  1  0  0  0  0
  4  5  2  0  0  0  0
  4  8  1  0  0  0  0
  5 11  1  0  0  0  0
  6 10  1  0  0  0  0
  6 16  1  0  0  0  0
  7 11  2  0  0  0  0
  7 12  1  0  0  0  0
  8  9  1  0  0  0  0
  8 10  2  0  0  0  0
 10 18  1  0  0  0  0
 11 14  1  0  0  0  0
 12 13  1  0  0  0  0
 12 20  2  0  0  0  0
 14 15  1  0  0  0  0
 14 24  2  0  0  0  0
 16 17  1  0  0  0  0
 18 19  1  0  0  0  0
 20 24  1  0  0  0  0
 20 26  1  0  0  0  0
 21 22  1  0  0  0  0
 21 23  1  0  0  0  0
 21 30  1  0  0  0  0
 24 25  1  0  0  0  0
 26 27  1  0  0  0  0
 26 28  1  0  0  0  0
 26 29  1  0  0  0  0
 30 31  1  0  0  0  0
 30 32  1  0  0  0  0
 30 51  1  0  0  0  0
 33 34  1  0  0  0  0
 33 35  1  0  0  0  0
 33 36  1  0  0  0  0
 33 57  1  0  0  0  0
 36 37  1  0  0  0  0
 36 38  1  0  0  0  0
 36 48  1  0  0  0  0
 39 40  1  0  0  0  0
 39 41  1  0  0  0  0
 39 42  1  0  0  0  0
 39 54  1  0  0  0  0
 42 43  1  0  0  0  0
 42 44  1  0  0  0  0
 42 45  1  0  0  0  0
 45 46  1  0  0  0  0
 45 47  1  0  0  0  0
 45 48  1  0  0  0  0
 48 49  1  0  0  0  0
 48 50  1  0  0  0  0
 51 52  1  0  0  0  0
 51 53  1  0  0  0  0
 51 54  1  0  0  0  0
 54 55  1  0  0  0  0
 54 56  1  0  0  0  0
 57 58  1  0  0  0  0
 57 59  1  0  0  0  0
 57 60  1  0  0  0  0
M  END
>  <IDNUMBER>
AK-693/43460768

>  <NAME>
Embelin, derivative of

>  <ADD_INFO>
http://www.specs.net/enter.php?specsid=AK-693/43460768

>  <H_ACCEPTORS>
2

>  <H_DONORS>
2

>  <ROTATABLE_BONDS>
10

>  <LOGP>
7.3400002

>  <LOGS>
-8.7700005

>  <TPSA>
66.239998

>  <PRICE>
N07

$$$$
AK-693/43460771
  MOE2011           3D

 75 77  0  0  0  0  0  0  0  0999 V2000
   -3.3750    0.5580    0.6360 C   0  0  0  0  0  0  0  0  0  0  0  0
   -1.9160    0.5000    1.0300 C   0  0  0  0  0  0  0  0  0  0  0  0
   -1.6810    2.9260    0.5370 C   0  0  0  0  0  0  0  0  0  0  0  0
   -1.1300    1.5940    0.9720 C   0  0  0  0  0  0  0  0  0  0  0  0
   -3.9730   -0.5850    0.4560 N   0  0  0  0  0  0  0  0  0  0  0  0
   -3.1560    3.0060    0.4540 C   0  0  0  0  0  0  0  0  0  0  0  0
   -3.5530    4.0080    0.3240 H   0  0  0  0  0  0  0  0  0  0  0  0
   -3.9560    1.9400    0.5010 C   0  0  0  0  0  0  0  0  0  0  0  0
   -1.0630    4.0310    0.2370 N   0  0  0  0  0  0  0  0  0  0  0  0
   -5.3120   -0.6820    0.0560 C   0  0  0  0  0  0  0  0  0  0  0  0
    0.3360    4.1200    0.2400 C   0  0  0  0  0  0  0  0  0  0  0  0
   -5.6700   -0.7170   -1.3060 C   0  0  0  0  0  0  0  0  0  0  0  0
    1.0940    3.8190   -0.9080 C   0  0  0  0  0  0  0  0  0  0  0  0
    0.2110    1.5560    1.3090 O   0  0  0  0  0  0  0  0  0  0  0  0
    0.5180    0.6420    1.3870 H   0  0  0  0  0  0  0  0  0  0  0  0
   -5.3280    2.0860    0.4180 O   0  0  0  0  0  0  0  0  0  0  0  0
   -5.5530    3.0240    0.3070 H   0  0  0  0  0  0  0  0  0  0  0  0
   -1.4270   -0.8570    1.5070 C   0  0  0  0  0  0  0  0  0  0  0  0
   -0.6570   -0.7250    2.2760 H   0  0  0  0  0  0  0  0  0  0  0  0
   -2.2310   -1.3940    2.0270 H   0  0  0  0  0  0  0  0  0  0  0  0
   -6.3010   -0.8410    1.0340 C   0  0  0  0  0  0  0  0  0  0  0  0
   -6.0190   -0.8440    2.0830 H   0  0  0  0  0  0  0  0  0  0  0  0
    0.9840    4.5920    1.3890 C   0  0  0  0  0  0  0  0  0  0  0  0
    0.3970    4.8500    2.2660 H   0  0  0  0  0  0  0  0  0  0  0  0
    0.4300    3.3410   -2.1680 C   0  0  0  0  0  0  0  0  0  0  0  0
    1.1230    3.3660   -3.0160 H   0  0  0  0  0  0  0  0  0  0  0  0
   -0.4170    3.9840   -2.4270 H   0  0  0  0  0  0  0  0  0  0  0  0
    0.0810    2.3120   -2.0440 H   0  0  0  0  0  0  0  0  0  0  0  0
   -4.6300   -0.5820   -2.3810 C   0  0  0  0  0  0  0  0  0  0  0  0
   -5.0450   -0.8090   -3.3690 H   0  0  0  0  0  0  0  0  0  0  0  0
   -3.8040   -1.2800   -2.2100 H   0  0  0  0  0  0  0  0  0  0  0  0
   -4.2410    0.4410   -2.4050 H   0  0  0  0  0  0  0  0  0  0  0  0
   -7.0220   -0.8540   -1.6550 C   0  0  0  0  0  0  0  0  0  0  0  0
   -7.3200   -0.8640   -2.7010 H   0  0  0  0  0  0  0  0  0  0  0  0
    2.4920    3.9380   -0.8580 C   0  0  0  0  0  0  0  0  0  0  0  0
    3.0950    3.6870   -1.7280 H   0  0  0  0  0  0  0  0  0  0  0  0
   -0.8880   -1.7090    0.3520 C   0  0  0  0  0  0  0  0  0  0  0  0
   -1.6650   -1.8230   -0.4140 H   0  0  0  0  0  0  0  0  0  0  0  0
   -0.0550   -1.1930   -0.1410 H   0  0  0  0  0  0  0  0  0  0  0  0
    6.9130   -1.8250   -1.0550 C   0  0  0  0  0  0  0  0  0  0  0  0
    8.0010   -1.7240   -0.9590 H   0  0  0  0  0  0  0  0  0  0  0  0
    6.7190   -2.8720   -1.3140 H   0  0  0  0  0  0  0  0  0  0  0  0
    6.2730   -1.4650    0.2890 C   0  0  0  0  0  0  0  0  0  0  0  0
    6.0150   -0.4000    0.3240 H   0  0  0  0  0  0  0  0  0  0  0  0
    7.0260   -1.6240    1.0720 H   0  0  0  0  0  0  0  0  0  0  0  0
   -0.4510   -3.1110    0.7880 C   0  0  0  0  0  0  0  0  0  0  0  0
   -1.3170   -3.6360    1.2100 H   0  0  0  0  0  0  0  0  0  0  0  0
   -0.1650   -3.6800   -0.1050 H   0  0  0  0  0  0  0  0  0  0  0  0
    0.6900   -3.1650    1.8100 C   0  0  0  0  0  0  0  0  0  0  0  0
    0.3330   -2.7710    2.7690 H   0  0  0  0  0  0  0  0  0  0  0  0
    0.9370   -4.2180    1.9930 H   0  0  0  0  0  0  0  0  0  0  0  0
    1.9710   -2.4170    1.4240 C   0  0  0  0  0  0  0  0  0  0  0  0
    1.7640   -1.3470    1.3170 H   0  0  0  0  0  0  0  0  0  0  0  0
    2.6700   -2.5120    2.2620 H   0  0  0  0  0  0  0  0  0  0  0  0
    2.6260   -2.9510    0.1480 C   0  0  0  0  0  0  0  0  0  0  0  0
    2.8910   -4.0070    0.2810 H   0  0  0  0  0  0  0  0  0  0  0  0
    1.9080   -2.9070   -0.6790 H   0  0  0  0  0  0  0  0  0  0  0  0
    3.8640   -2.1550   -0.2800 C   0  0  0  0  0  0  0  0  0  0  0  0
    4.1510   -2.5140   -1.2740 H   0  0  0  0  0  0  0  0  0  0  0  0
    3.6020   -1.0950   -0.3820 H   0  0  0  0  0  0  0  0  0  0  0  0
    5.0520   -2.3120    0.6690 C   0  0  0  0  0  0  0  0  0  0  0  0
    4.7570   -2.0200    1.6840 H   0  0  0  0  0  0  0  0  0  0  0  0
    5.3420   -3.3690    0.7200 H   0  0  0  0  0  0  0  0  0  0  0  0
   -7.6410   -0.9850    0.6750 C   0  0  0  0  0  0  0  0  0  0  0  0
   -8.3990   -1.0940    1.4450 H   0  0  0  0  0  0  0  0  0  0  0  0
    2.3730    4.7170    1.4240 C   0  0  0  0  0  0  0  0  0  0  0  0
    2.8630    5.0700    2.3270 H   0  0  0  0  0  0  0  0  0  0  0  0
    6.4710   -0.9130   -2.1910 C   0  0  0  0  0  0  0  0  0  0  0  0
    6.7260    0.1290   -1.9750 H   0  0  0  0  0  0  0  0  0  0  0  0
    5.3950   -0.9690   -2.3690 H   0  0  0  0  0  0  0  0  0  0  0  0
    6.9790   -1.1980   -3.1180 H   0  0  0  0  0  0  0  0  0  0  0  0
    3.1270    4.3850    0.3010 C   0  0  0  0  0  0  0  0  0  0  0  0
    4.2090    4.4790    0.3260 H   0  0  0  0  0  0  0  0  0  0  0  0
   -8.0010   -0.9880   -0.6690 C   0  0  0  0  0  0  0  0  0  0  0  0
   -9.0450   -1.0980   -0.9520 H   0  0  0  0  0  0  0  0  0  0  0  0
  1  2  1  0  0  0  0
  1  5  2  0  0  0  0
  1  8  1  0  0  0  0
  2  4  2  0  0  0  0
  2 18  1  0  0  0  0
  3  4  1  0  0  0  0
  3  6  1  0  0  0  0
  3  9  2  0  0  0  0
  4 14  1  0  0  0  0
  5 10  1  0  0  0  0
  6  7  1  0  0  0  0
  6  8  2  0  0  0  0
  8 16  1  0  0  0  0
  9 11  1  0  0  0  0
 10 12  2  0  0  0  0
 10 21  1  0  0  0  0
 11 13  2  0  0  0  0
 11 23  1  0  0  0  0
 12 29  1  0  0  0  0
 12 33  1  0  0  0  0
 13 25  1  0  0  0  0
 13 35  1  0  0  0  0
 14 15  1  0  0  0  0
 16 17  1  0  0  0  0
 18 19  1  0  0  0  0
 18 20  1  0  0  0  0
 18 37  1  0  0  0  0
 21 22  1  0  0  0  0
 21 64  2  0  0  0  0
 23 24  1  0  0  0  0
 23 66  2  0  0  0  0
 25 26  1  0  0  0  0
 25 27  1  0  0  0  0
 25 28  1  0  0  0  0
 29 30  1  0  0  0  0
 29 31  1  0  0  0  0
 29 32  1  0  0  0  0
 33 34  1  0  0  0  0
 33 74  2  0  0  0  0
 35 36  1  0  0  0  0
 35 72  2  0  0  0  0
 37 38  1  0  0  0  0
 37 39  1  0  0  0  0
 37 46  1  0  0  0  0
 40 41  1  0  0  0  0
 40 42  1  0  0  0  0
 40 43  1  0  0  0  0
 40 68  1  0  0  0  0
 43 44  1  0  0  0  0
 43 45  1  0  0  0  0
 43 61  1  0  0  0  0
 46 47  1  0  0  0  0
 46 48  1  0  0  0  0
 46 49  1  0  0  0  0
 49 50  1  0  0  0  0
 49 51  1  0  0  0  0
 49 52  1  0  0  0  0
 52 53  1  0  0  0  0
 52 54  1  0  0  0  0
 52 55  1  0  0  0  0
 55 56  1  0  0  0  0
 55 57  1  0  0  0  0
 55 58  1  0  0  0  0
 58 59  1  0  0  0  0
 58 60  1  0  0  0  0
 58 61  1  0  0  0  0
 61 62  1  0  0  0  0
 61 63  1  0  0  0  0
 64 65  1  0  0  0  0
 64 74  1  0  0  0  0
 66 67  1  0  0  0  0
 66 72  1  0  0  0  0
 68 69  1  0  0  0  0
 68 70  1  0  0  0  0
 68 71  1  0  0  0  0
 72 73  1  0  0  0  0
 74 75  1  0  0  0  0
M  END
>  <IDNUMBER>
AK-693/43460771

>  <NAME>
Embelin, derivative of

>  <ADD_INFO>
http://www.specs.net/enter.php?specsid=AK-693/43460771

>  <H_ACCEPTORS>
4

>  <H_DONORS>
2

>  <ROTATABLE_BONDS>
12

>  <LOGP>
10.59

>  <LOGS>
-11.69

>  <TPSA>
65.18

>  <PRICE>
N07

$$$$
AK-693/43460772
  MOE2011           3D

 59 60  0  0  1  0  0  0  0  0999 V2000
   -1.1090    1.0010    0.4540 C   0  0  0  0  0  0  0  0  0  0  0  0
   -3.6610    0.8790    0.2740 C   0  0  0  0  0  0  0  0  0  0  0  0
   -2.3420    1.1350   -0.3710 C   0  0  0  0  0  0  0  0  0  0  0  0
   -1.1260    0.9060    1.8050 C   0  0  0  0  0  0  0  0  0  0  0  0
   -3.6940    0.8450    1.6070 C   0  0  0  0  0  0  0  0  0  0  0  0
   -4.6270    0.7560    2.1510 H   0  0  0  0  0  0  0  0  0  0  0  0
   -2.5000    0.9720    2.4630 C   0  0  0  0  0  0  0  0  0  0  0  0
   -4.7200    0.7870   -0.6080 N   0  0  0  0  0  0  0  0  0  0  0  0
   -4.5080    1.1620   -1.5320 H   0  0  0  0  0  0  0  0  0  0  0  0
  -10.0450   -1.2600    0.1070 C   0  0  0  0  0  0  0  0  0  0  0  0
   -8.6410   -0.7420   -0.0850 C   0  0  0  0  0  0  0  0  0  0  0  0
   -2.2920    1.4210   -1.5690 O   0  0  0  0  0  0  0  0  0  0  0  0
   -2.6860    1.1080    3.6730 O   0  0  0  0  0  0  0  0  0  0  0  0
  -10.2050   -2.2260    0.9190 O   0  0  0  0  0  0  0  0  0  0  0  0
   -0.1500    0.7830    2.6020 O   0  5  0  0  0  0  0  0  0  0  0  0
   -6.0000    0.2390   -0.4350 C   0  0  0  0  0  0  0  0  0  0  0  0
   -7.5780   -1.2570    0.6650 C   0  0  0  0  0  0  0  0  0  0  0  0
   -7.7610   -2.0480    1.3900 H   0  0  0  0  0  0  0  0  0  0  0  0
   -8.3660    0.2690   -1.0170 C   0  0  0  0  0  0  0  0  0  0  0  0
   -9.1760    0.6900   -1.6110 H   0  0  0  0  0  0  0  0  0  0  0  0
    0.1770    0.9390   -0.3510 C   0  0  0  0  0  0  0  0  0  0  0  0
    0.9110    0.3130    0.1690 H   0  0  0  0  0  0  0  0  0  0  0  0
   -0.0050    0.4230   -1.3030 H   0  0  0  0  0  0  0  0  0  0  0  0
  -10.9660   -0.6900   -0.5590 O   0  5  0  0  0  0  0  0  0  0  0  0
   -7.0640    0.7510   -1.1890 C   0  0  0  0  0  0  0  0  0  0  0  0
   -6.8930    1.5460   -1.9100 H   0  0  0  0  0  0  0  0  0  0  0  0
   -6.2780   -0.7690    0.4940 C   0  0  0  0  0  0  0  0  0  0  0  0
   -5.4830   -1.2200    1.0810 H   0  0  0  0  0  0  0  0  0  0  0  0
    0.7700    2.3280   -0.6150 C   0  0  0  0  0  0  0  0  0  0  0  0
    0.0030    2.9850   -1.0430 H   0  0  0  0  0  0  0  0  0  0  0  0
    1.0700    2.7900    0.3330 H   0  0  0  0  0  0  0  0  0  0  0  0
    6.3880   -2.3130   -0.9900 C   0  0  0  0  0  0  0  0  0  0  0  0
    5.7380   -1.6140   -1.5270 H   0  0  0  0  0  0  0  0  0  0  0  0
    7.3010   -2.4090   -1.5910 H   0  0  0  0  0  0  0  0  0  0  0  0
    6.7720   -1.7440    0.3780 C   0  0  0  0  0  0  0  0  0  0  0  0
    7.3020   -0.7960    0.2260 H   0  0  0  0  0  0  0  0  0  0  0  0
    7.4970   -2.4200    0.8510 H   0  0  0  0  0  0  0  0  0  0  0  0
    4.4760   -0.6360    0.8460 C   0  0  0  0  0  0  0  0  0  0  0  0
    3.7070   -0.5880    1.6270 H   0  0  0  0  0  0  0  0  0  0  0  0
    4.0030   -1.1070   -0.0210 H   0  0  0  0  0  0  0  0  0  0  0  0
    5.6120   -1.5270    1.3560 C   0  0  0  0  0  0  0  0  0  0  0  0
    6.0170   -1.0930    2.2790 H   0  0  0  0  0  0  0  0  0  0  0  0
    5.1920   -2.4990    1.6410 H   0  0  0  0  0  0  0  0  0  0  0  0
    1.9640    2.3060   -1.5780 C   0  0  0  0  0  0  0  0  0  0  0  0
    1.6040    2.0180   -2.5730 H   0  0  0  0  0  0  0  0  0  0  0  0
    2.3520    3.3280   -1.6750 H   0  0  0  0  0  0  0  0  0  0  0  0
    3.1120    1.3670   -1.1950 C   0  0  0  0  0  0  0  0  0  0  0  0
    2.7530    0.3330   -1.1980 H   0  0  0  0  0  0  0  0  0  0  0  0
    3.8770    1.4250   -1.9810 H   0  0  0  0  0  0  0  0  0  0  0  0
    3.7580    1.7120    0.1490 C   0  0  0  0  0  0  0  0  0  0  0  0
    4.1320    2.7430    0.1060 H   0  0  0  0  0  0  0  0  0  0  0  0
    3.0170    1.6770    0.9550 H   0  0  0  0  0  0  0  0  0  0  0  0
    4.9270    0.7870    0.5040 C   0  0  0  0  0  0  0  0  0  0  0  0
    5.6430    0.7740   -0.3260 H   0  0  0  0  0  0  0  0  0  0  0  0
    5.4500    1.2110    1.3700 H   0  0  0  0  0  0  0  0  0  0  0  0
    5.7170   -3.6750   -0.9130 C   0  0  0  0  0  0  0  0  0  0  0  0
    4.7420   -3.6150   -0.4200 H   0  0  0  0  0  0  0  0  0  0  0  0
    6.3390   -4.3900   -0.3650 H   0  0  0  0  0  0  0  0  0  0  0  0
    5.5540   -4.0710   -1.9210 H   0  0  0  0  0  0  0  0  0  0  0  0
  1  3  1  0  0  0  0
  1  4  2  0  0  0  0
  1 21  1  0  0  0  0
  2  3  1  0  0  0  0
  2  5  2  0  0  0  0
  2  8  1  0  0  0  0
  3 12  2  0  0  0  0
  4  7  1  0  0  0  0
  4 15  1  0  0  0  0
  5  6  1  0  0  0  0
  5  7  1  0  0  0  0
  7 13  2  0  0  0  0
  8  9  1  0  0  0  0
  8 16  1  0  0  0  0
 10 11  1  0  0  0  0
 10 14  2  0  0  0  0
 10 24  1  0  0  0  0
 11 17  1  0  0  0  0
 11 19  2  0  0  0  0
 16 25  2  0  0  0  0
 16 27  1  0  0  0  0
 17 18  1  0  0  0  0
 17 27  2  0  0  0  0
 19 20  1  0  0  0  0
 19 25  1  0  0  0  0
 21 22  1  0  0  0  0
 21 23  1  0  0  0  0
 21 29  1  0  0  0  0
 25 26  1  0  0  0  0
 27 28  1  0  0  0  0
 29 30  1  0  0  0  0
 29 31  1  0  0  0  0
 29 44  1  0  0  0  0
 32 33  1  0  0  0  0
 32 34  1  0  0  0  0
 32 35  1  0  0  0  0
 32 56  1  0  0  0  0
 35 36  1  0  0  0  0
 35 37  1  0  0  0  0
 35 41  1  0  0  0  0
 38 39  1  0  0  0  0
 38 40  1  0  0  0  0
 38 41  1  0  0  0  0
 38 53  1  0  0  0  0
 41 42  1  0  0  0  0
 41 43  1  0  0  0  0
 44 45  1  0  0  0  0
 44 46  1  0  0  0  0
 44 47  1  0  0  0  0
 47 48  1  0  0  0  0
 47 49  1  0  0  0  0
 47 50  1  0  0  0  0
 50 51  1  0  0  0  0
 50 52  1  0  0  0  0
 50 53  1  0  0  0  0
 53 54  1  0  0  0  0
 53 55  1  0  0  0  0
 56 57  1  0  0  0  0
 56 58  1  0  0  0  0
 56 59  1  0  0  0  0
M  CHG  1  15  -1
M  CHG  1  24  -1
M  END
>  <IDNUMBER>
AK-693/43460772

>  <NAME>
Embelin, derivative of

>  <ADD_INFO>
http://www.specs.net/enter.php?specsid=AK-693/43460772

>  <H_ACCEPTORS>
6

>  <H_DONORS>
3

>  <ROTATABLE_BONDS>
13

>  <LOGP>
6.3099999

>  <LOGS>
-7.5999999

>  <TPSA>
103.7

>  <PRICE>
N07

$$$$
AK-693/43460773
  MOE2011           3D

 57 58  0  0  0  0  0  0  0  0999 V2000
   -2.7150    1.2400   -0.2280 C   0  0  0  0  0  0  0  0  0  0  0  0
   -5.1400    1.5670    0.0230 C   0  0  0  0  0  0  0  0  0  0  0  0
   -3.8940    0.6600    0.1070 C   0  0  0  0  0  0  0  0  0  0  0  0
   -2.5880    2.6850   -0.5720 C   0  0  0  0  0  0  0  0  0  0  0  0
   -4.8890    3.0290    0.1260 C   0  0  0  0  0  0  0  0  0  0  0  0
   -5.7540    3.6330    0.3720 H   0  0  0  0  0  0  0  0  0  0  0  0
   -3.7090    3.5690   -0.1720 C   0  0  0  0  0  0  0  0  0  0  0  0
   -6.4070    1.2860   -0.1290 N   0  0  0  0  0  0  0  0  0  0  0  0
   -6.8440   -0.0330   -0.3190 C   0  0  0  0  0  0  0  0  0  0  0  0
   -7.4410   -0.7770    0.7130 C   0  0  0  0  0  0  0  0  0  0  0  0
   -7.8840   -2.0820    0.4840 C   0  0  0  0  0  0  0  0  0  0  0  0
   -8.3280   -2.6560    1.2920 H   0  0  0  0  0  0  0  0  0  0  0  0
   -1.5810    3.1370   -1.1110 O   0  0  0  0  0  0  0  0  0  0  0  0
   -6.7460   -0.6070   -1.5960 C   0  0  0  0  0  0  0  0  0  0  0  0
   -6.2970   -0.0350   -2.4030 H   0  0  0  0  0  0  0  0  0  0  0  0
   -4.0930   -0.5300    0.4850 O   0  5  0  0  0  0  0  0  0  0  0  0
   -7.7460   -2.6430   -0.7840 C   0  0  0  0  0  0  0  0  0  0  0  0
   -3.4940    4.9350   -0.1630 O   0  0  0  0  0  0  0  0  0  0  0  0
   -4.3150    5.3800    0.1040 H   0  0  0  0  0  0  0  0  0  0  0  0
   -1.4100    0.4640   -0.2870 C   0  0  0  0  0  0  0  0  0  0  0  0
   -1.5960   -0.6160   -0.3400 H   0  0  0  0  0  0  0  0  0  0  0  0
   -0.8830    0.7030   -1.2200 H   0  0  0  0  0  0  0  0  0  0  0  0
   -7.6640   -0.1060    2.2920 Cl  0  0  0  0  0  0  0  0  0  0  0  0
   -7.1870   -1.9100   -1.8290 C   0  0  0  0  0  0  0  0  0  0  0  0
   -7.0800   -2.3440   -2.8190 H   0  0  0  0  0  0  0  0  0  0  0  0
   -8.2840   -4.2530   -1.0670 Cl  0  0  0  0  0  0  0  0  0  0  0  0
   -0.5040    0.7570    0.9150 C   0  0  0  0  0  0  0  0  0  0  0  0
   -0.2160    1.8160    0.9200 H   0  0  0  0  0  0  0  0  0  0  0  0
   -1.0490    0.5680    1.8480 H   0  0  0  0  0  0  0  0  0  0  0  0
    7.4860   -0.7540   -1.7460 C   0  0  0  0  0  0  0  0  0  0  0  0
    8.2760   -1.4520   -1.4460 H   0  0  0  0  0  0  0  0  0  0  0  0
    6.9380   -1.2210   -2.5720 H   0  0  0  0  0  0  0  0  0  0  0  0
    6.5400   -0.5040   -0.5700 C   0  0  0  0  0  0  0  0  0  0  0  0
    5.7640    0.2050   -0.8810 H   0  0  0  0  0  0  0  0  0  0  0  0
    7.0930   -0.0390    0.2550 H   0  0  0  0  0  0  0  0  0  0  0  0
    2.8830   -0.7440    2.1540 C   0  0  0  0  0  0  0  0  0  0  0  0
    3.4680   -0.4590    3.0370 H   0  0  0  0  0  0  0  0  0  0  0  0
    2.5070   -1.7580    2.3390 H   0  0  0  0  0  0  0  0  0  0  0  0
    3.7970   -0.7530    0.9260 C   0  0  0  0  0  0  0  0  0  0  0  0
    3.2480   -1.1280    0.0550 H   0  0  0  0  0  0  0  0  0  0  0  0
    4.1080    0.2740    0.7030 H   0  0  0  0  0  0  0  0  0  0  0  0
    5.0270   -1.6350    1.1590 C   0  0  0  0  0  0  0  0  0  0  0  0
    5.6310   -1.2190    1.9750 H   0  0  0  0  0  0  0  0  0  0  0  0
    4.6980   -2.6290    1.4850 H   0  0  0  0  0  0  0  0  0  0  0  0
    5.8970   -1.8070   -0.0890 C   0  0  0  0  0  0  0  0  0  0  0  0
    6.6880   -2.5310    0.1430 H   0  0  0  0  0  0  0  0  0  0  0  0
    5.2980   -2.2430   -0.8970 H   0  0  0  0  0  0  0  0  0  0  0  0
    0.7560   -0.1130    0.8770 C   0  0  0  0  0  0  0  0  0  0  0  0
    0.4690   -1.1700    0.9290 H   0  0  0  0  0  0  0  0  0  0  0  0
    1.2690    0.0400   -0.0790 H   0  0  0  0  0  0  0  0  0  0  0  0
    1.7000    0.2220    2.0330 C   0  0  0  0  0  0  0  0  0  0  0  0
    2.0740    1.2470    1.9160 H   0  0  0  0  0  0  0  0  0  0  0  0
    1.1420    0.1960    2.9770 H   0  0  0  0  0  0  0  0  0  0  0  0
    8.1220    0.5380   -2.2360 C   0  0  0  0  0  0  0  0  0  0  0  0
    8.7040    1.0150   -1.4400 H   0  0  0  0  0  0  0  0  0  0  0  0
    7.3600    1.2460   -2.5760 H   0  0  0  0  0  0  0  0  0  0  0  0
    8.7950    0.3350   -3.0740 H   0  0  0  0  0  0  0  0  0  0  0  0
  1  3  2  0  0  0  0
  1  4  1  0  0  0  0
  1 20  1  0  0  0  0
  2  3  1  0  0  0  0
  2  5  1  0  0  0  0
  2  8  2  0  0  0  0
  3 16  1  0  0  0  0
  4  7  1  0  0  0  0
  4 13  2  0  0  0  0
  5  6  1  0  0  0  0
  5  7  2  0  0  0  0
  7 18  1  0  0  0  0
  8  9  1  0  0  0  0
  9 10  2  0  0  0  0
  9 14  1  0  0  0  0
 10 11  1  0  0  0  0
 10 23  1  0  0  0  0
 11 12  1  0  0  0  0
 11 17  2  0  0  0  0
 14 15  1  0  0  0  0
 14 24  2  0  0  0  0
 17 24  1  0  0  0  0
 17 26  1  0  0  0  0
 18 19  1  0  0  0  0
 20 21  1  0  0  0  0
 20 22  1  0  0  0  0
 20 27  1  0  0  0  0
 24 25  1  0  0  0  0
 27 28  1  0  0  0  0
 27 29  1  0  0  0  0
 27 48  1  0  0  0  0
 30 31  1  0  0  0  0
 30 32  1  0  0  0  0
 30 33  1  0  0  0  0
 30 54  1  0  0  0  0
 33 34  1  0  0  0  0
 33 35  1  0  0  0  0
 33 45  1  0  0  0  0
 36 37  1  0  0  0  0
 36 38  1  0  0  0  0
 36 39  1  0  0  0  0
 36 51  1  0  0  0  0
 39 40  1  0  0  0  0
 39 41  1  0  0  0  0
 39 42  1  0  0  0  0
 42 43  1  0  0  0  0
 42 44  1  0  0  0  0
 42 45  1  0  0  0  0
 45 46  1  0  0  0  0
 45 47  1  0  0  0  0
 48 49  1  0  0  0  0
 48 50  1  0  0  0  0
 48 51  1  0  0  0  0
 51 52  1  0  0  0  0
 51 53  1  0  0  0  0
 54 55  1  0  0  0  0
 54 56  1  0  0  0  0
 54 57  1  0  0  0  0
M  CHG  1  16  -1
M  END
>  <IDNUMBER>
AK-693/43460773

>  <NAME>
Embelin, derivative of

>  <ADD_INFO>
http://www.specs.net/enter.php?specsid=AK-693/43460773

>  <H_ACCEPTORS>
4

>  <H_DONORS>
2

>  <ROTATABLE_BONDS>
11

>  <LOGP>
9.2700005

>  <LOGS>
-10.31

>  <TPSA>
69.889999

>  <PRICE>
N07

$$$$
AK-693/43460774
  MOE2011           3D

 74 74  0  0  1  0  0  0  0  0999 V2000
   -0.9830   -0.7280   -1.9020 C   0  0  0  0  0  0  0  0  0  0  0  0
   -1.2990    0.5610   -1.6160 C   0  0  0  0  0  0  0  0  0  0  0  0
   -1.9570   -1.8540   -1.8380 C   0  0  0  0  0  0  0  0  0  0  0  0
   -3.3670   -1.5650   -1.4650 C   0  0  0  0  0  0  0  0  0  0  0  0
   -3.6830   -0.3100   -1.1560 C   0  0  0  0  0  0  0  0  0  0  0  0
   -4.6990   -0.0570   -0.8730 H   0  0  0  0  0  0  0  0  0  0  0  0
   -2.7390    0.8370   -1.1290 C   0  0  0  0  0  0  0  0  0  0  0  0
   -3.3110    1.9090   -0.6820 N   0  0  0  0  0  0  0  0  0  0  0  0
   -1.6350   -3.0140   -2.1060 O   0  0  0  0  0  0  0  0  0  0  0  0
   -4.2180   -2.6580   -1.4730 N   0  0  0  0  0  0  0  0  0  0  0  0
   -3.7500   -3.5240   -1.7490 H   0  0  0  0  0  0  0  0  0  0  0  0
   -0.5380    1.5670   -1.7060 O   0  5  0  0  0  0  0  0  0  0  0  0
    0.3980   -1.1460   -2.3950 C   0  0  0  0  0  0  0  0  0  0  0  0
    0.2710   -1.7890   -3.2760 H   0  0  0  0  0  0  0  0  0  0  0  0
    0.9700   -0.2910   -2.7730 H   0  0  0  0  0  0  0  0  0  0  0  0
   -4.9770    6.8050    0.0750 O   0  0  0  0  0  0  0  0  0  0  0  0
   -5.5550    7.4320    0.5420 H   0  0  0  0  0  0  0  0  0  0  0  0
   -6.8630   -3.9240    2.8680 O   0  0  0  0  0  0  0  0  0  0  0  0
   -6.9560   -3.8720    3.8350 H   0  0  0  0  0  0  0  0  0  0  0  0
   -2.6090    3.1730   -0.5380 C   0  0  0  0  0  0  0  0  0  0  0  0
   -1.7460    3.0710    0.1290 H   0  0  0  0  0  0  0  0  0  0  0  0
   -2.2900    3.5570   -1.5140 H   0  0  0  0  0  0  0  0  0  0  0  0
   -5.6240   -2.7230   -1.1440 C   0  0  0  0  0  0  0  0  0  0  0  0
   -6.1620   -1.8940   -1.6180 H   0  0  0  0  0  0  0  0  0  0  0  0
   -6.0420   -3.6450   -1.5630 H   0  0  0  0  0  0  0  0  0  0  0  0
   -5.4730   -3.8630    2.5820 C   0  0  0  0  0  0  0  0  0  0  0  0
   -5.0650   -2.9390    3.0060 H   0  0  0  0  0  0  0  0  0  0  0  0
   -4.9850   -4.7160    3.0640 H   0  0  0  0  0  0  0  0  0  0  0  0
   -3.8660    6.5530    0.9220 C   0  0  0  0  0  0  0  0  0  0  0  0
   -3.3420    7.4990    1.0920 H   0  0  0  0  0  0  0  0  0  0  0  0
   -4.2320    6.1780    1.8830 H   0  0  0  0  0  0  0  0  0  0  0  0
    1.2430   -1.9080   -1.3600 C   0  0  0  0  0  0  0  0  0  0  0  0
    0.6900   -2.7870   -1.0100 H   0  0  0  0  0  0  0  0  0  0  0  0
    2.1380   -2.2960   -1.8630 H   0  0  0  0  0  0  0  0  0  0  0  0
   -3.5830    4.1790    0.0820 C   0  0  0  0  0  0  0  0  0  0  0  0
   -4.4700    4.2690   -0.5580 H   0  0  0  0  0  0  0  0  0  0  0  0
   -3.9320    3.8010    1.0510 H   0  0  0  0  0  0  0  0  0  0  0  0
   -5.8530   -2.6990    0.3670 C   0  0  0  0  0  0  0  0  0  0  0  0
   -5.4320   -1.7830    0.7990 H   0  0  0  0  0  0  0  0  0  0  0  0
   -6.9330   -2.6660    0.5490 H   0  0  0  0  0  0  0  0  0  0  0  0
   -5.2510   -3.9170    1.0760 C   0  0  0  0  0  0  0  0  0  0  0  0
   -4.1750   -3.9760    0.8820 H   0  0  0  0  0  0  0  0  0  0  0  0
   -5.7140   -4.8260    0.6730 H   0  0  0  0  0  0  0  0  0  0  0  0
   -2.9260    5.5490    0.2660 C   0  0  0  0  0  0  0  0  0  0  0  0
   -2.6160    5.9290   -0.7150 H   0  0  0  0  0  0  0  0  0  0  0  0
   -2.0260    5.4460    0.8830 H   0  0  0  0  0  0  0  0  0  0  0  0
    8.5070    0.1290   -0.2500 C   0  0  0  0  0  0  0  0  0  0  0  0
    8.1110    0.6130   -1.1490 H   0  0  0  0  0  0  0  0  0  0  0  0
    8.8040    0.9250    0.4430 H   0  0  0  0  0  0  0  0  0  0  0  0
    7.4260   -0.7410    0.3910 C   0  0  0  0  0  0  0  0  0  0  0  0
    7.8270   -1.2240    1.2900 H   0  0  0  0  0  0  0  0  0  0  0  0
    7.1380   -1.5400   -0.3030 H   0  0  0  0  0  0  0  0  0  0  0  0
    5.1030   -0.7880    1.3830 C   0  0  0  0  0  0  0  0  0  0  0  0
    5.5180   -1.3090    2.2550 H   0  0  0  0  0  0  0  0  0  0  0  0
    4.8010   -1.5680    0.6750 H   0  0  0  0  0  0  0  0  0  0  0  0
    6.1930    0.0870    0.7590 C   0  0  0  0  0  0  0  0  0  0  0  0
    5.8110    0.5770   -0.1430 H   0  0  0  0  0  0  0  0  0  0  0  0
    6.4780    0.8770    1.4640 H   0  0  0  0  0  0  0  0  0  0  0  0
    1.6780   -1.0990   -0.1330 C   0  0  0  0  0  0  0  0  0  0  0  0
    0.8060   -0.6620    0.3670 H   0  0  0  0  0  0  0  0  0  0  0  0
    2.1250   -1.8020    0.5790 H   0  0  0  0  0  0  0  0  0  0  0  0
    2.6980   -0.0070   -0.4680 C   0  0  0  0  0  0  0  0  0  0  0  0
    3.5670   -0.4510   -0.9670 H   0  0  0  0  0  0  0  0  0  0  0  0
    2.2640    0.6970   -1.1840 H   0  0  0  0  0  0  0  0  0  0  0  0
    3.1470    0.7990    0.7560 C   0  0  0  0  0  0  0  0  0  0  0  0
    3.7920    1.6170    0.4150 H   0  0  0  0  0  0  0  0  0  0  0  0
    2.2700    1.2780    1.2070 H   0  0  0  0  0  0  0  0  0  0  0  0
    3.8760    0.0050    1.8450 C   0  0  0  0  0  0  0  0  0  0  0  0
    4.1840    0.7050    2.6310 H   0  0  0  0  0  0  0  0  0  0  0  0
    3.1730   -0.6880    2.3210 H   0  0  0  0  0  0  0  0  0  0  0  0
    9.7320   -0.6900   -0.6240 C   0  0  0  0  0  0  0  0  0  0  0  0
    9.4740   -1.4760   -1.3420 H   0  0  0  0  0  0  0  0  0  0  0  0
   10.1720   -1.1640    0.2600 H   0  0  0  0  0  0  0  0  0  0  0  0
   10.4920   -0.0490   -1.0810 H   0  0  0  0  0  0  0  0  0  0  0  0
  1  2  2  0  0  0  0
  1  3  1  0  0  0  0
  1 13  1  0  0  0  0
  2  7  1  0  0  0  0
  2 12  1  0  0  0  0
  3  4  1  0  0  0  0
  3  9  2  0  0  0  0
  4  5  2  0  0  0  0
  4 10  1  0  0  0  0
  5  6  1  0  0  0  0
  5  7  1  0  0  0  0
  7  8  2  0  0  0  0
  8 20  1  0  0  0  0
 10 11  1  0  0  0  0
 10 23  1  0  0  0  0
 13 14  1  0  0  0  0
 13 15  1  0  0  0  0
 13 32  1  0  0  0  0
 16 17  1  0  0  0  0
 16 29  1  0  0  0  0
 18 19  1  0  0  0  0
 18 26  1  0  0  0  0
 20 21  1  0  0  0  0
 20 22  1  0  0  0  0
 20 35  1  0  0  0  0
 23 24  1  0  0  0  0
 23 25  1  0  0  0  0
 23 38  1  0  0  0  0
 26 27  1  0  0  0  0
 26 28  1  0  0  0  0
 26 41  1  0  0  0  0
 29 30  1  0  0  0  0
 29 31  1  0  0  0  0
 29 44  1  0  0  0  0
 32 33  1  0  0  0  0
 32 34  1  0  0  0  0
 32 59  1  0  0  0  0
 35 36  1  0  0  0  0
 35 37  1  0  0  0  0
 35 44  1  0  0  0  0
 38 39  1  0  0  0  0
 38 40  1  0  0  0  0
 38 41  1  0  0  0  0
 41 42  1  0  0  0  0
 41 43  1  0  0  0  0
 44 45  1  0  0  0  0
 44 46  1  0  0  0  0
 47 48  1  0  0  0  0
 47 49  1  0  0  0  0
 47 50  1  0  0  0  0
 47 71  1  0  0  0  0
 50 51  1  0  0  0  0
 50 52  1  0  0  0  0
 50 56  1  0  0  0  0
 53 54  1  0  0  0  0
 53 55  1  0  0  0  0
 53 56  1  0  0  0  0
 53 68  1  0  0  0  0
 56 57  1  0  0  0  0
 56 58  1  0  0  0  0
 59 60  1  0  0  0  0
 59 61  1  0  0  0  0
 59 62  1  0  0  0  0
 62 63  1  0  0  0  0
 62 64  1  0  0  0  0
 62 65  1  0  0  0  0
 65 66  1  0  0  0  0
 65 67  1  0  0  0  0
 65 68  1  0  0  0  0
 68 69  1  0  0  0  0
 68 70  1  0  0  0  0
 71 72  1  0  0  0  0
 71 73  1  0  0  0  0
 71 74  1  0  0  0  0
M  CHG  1  12  -1
M  END
>  <IDNUMBER>
AK-693/43460774

>  <NAME>
Embelin, derivative of

>  <ADD_INFO>
http://www.specs.net/enter.php?specsid=AK-693/43460774

>  <H_ACCEPTORS>
6

>  <H_DONORS>
4

>  <ROTATABLE_BONDS>
19

>  <LOGP>
5.27

>  <LOGS>
-6.8800001

>  <TPSA>
102.15

>  <PRICE>
N07

$$$$
AK-693/43460775
  MOE2011           3D

 60 61  0  0  1  0  0  0  0  0999 V2000
   -1.7740    2.7310   -0.1450 C   0  0  0  0  0  0  0  0  0  0  0  0
   -3.7190    1.0610    0.0860 C   0  0  0  0  0  0  0  0  0  0  0  0
   -2.3200    1.3590   -0.3420 C   0  0  0  0  0  0  0  0  0  0  0  0
   -2.4610    3.7300    0.4600 C   0  0  0  0  0  0  0  0  0  0  0  0
   -4.3820    2.0240    0.7280 C   0  0  0  0  0  0  0  0  0  0  0  0
   -5.3710    1.8590    1.1360 H   0  0  0  0  0  0  0  0  0  0  0  0
   -3.8510    3.3770    0.9770 C   0  0  0  0  0  0  0  0  0  0  0  0
   -4.1210   -0.2350   -0.1840 N   0  0  0  0  0  0  0  0  0  0  0  0
   -3.3390   -0.8300   -0.4620 H   0  0  0  0  0  0  0  0  0  0  0  0
   -1.6520    0.4550   -0.8480 O   0  0  0  0  0  0  0  0  0  0  0  0
   -4.5840    4.1510    1.5970 O   0  0  0  0  0  0  0  0  0  0  0  0
   -5.3820   -0.8490   -0.1650 C   0  0  0  0  0  0  0  0  0  0  0  0
   -2.0960    4.9240    0.6700 O   0  5  0  0  0  0  0  0  0  0  0  0
   -0.3750    2.9310   -0.7060 C   0  0  0  0  0  0  0  0  0  0  0  0
   -0.3000    2.4210   -1.6740 H   0  0  0  0  0  0  0  0  0  0  0  0
   -0.1890    3.9880   -0.9300 H   0  0  0  0  0  0  0  0  0  0  0  0
   -5.4520   -2.2320    0.0800 C   0  0  0  0  0  0  0  0  0  0  0  0
   -4.5310   -2.7920    0.2340 H   0  0  0  0  0  0  0  0  0  0  0  0
   -6.6800   -2.9090    0.1430 C   0  0  0  0  0  0  0  0  0  0  0  0
   -7.8140   -0.8120   -0.2550 C   0  0  0  0  0  0  0  0  0  0  0  0
   -8.7350   -0.2500   -0.3890 H   0  0  0  0  0  0  0  0  0  0  0  0
   -6.5840   -0.1540   -0.3300 C   0  0  0  0  0  0  0  0  0  0  0  0
   -6.5850    0.9080   -0.5550 H   0  0  0  0  0  0  0  0  0  0  0  0
   -7.8630   -2.1830   -0.0130 C   0  0  0  0  0  0  0  0  0  0  0  0
   -8.8280   -2.6800    0.0500 H   0  0  0  0  0  0  0  0  0  0  0  0
   -6.7210   -4.3780    0.4390 C   0  0  0  0  0  0  0  0  0  0  0  0
   -7.6060   -4.8430   -0.0090 H   0  0  0  0  0  0  0  0  0  0  0  0
   -6.7450   -4.5420    1.5210 H   0  0  0  0  0  0  0  0  0  0  0  0
   -5.8440   -4.8840    0.0230 H   0  0  0  0  0  0  0  0  0  0  0  0
    0.7030    2.4230    0.2590 C   0  0  0  0  0  0  0  0  0  0  0  0
    0.5830    2.9230    1.2290 H   0  0  0  0  0  0  0  0  0  0  0  0
    0.5710    1.3530    0.4520 H   0  0  0  0  0  0  0  0  0  0  0  0
    7.5700   -1.6200    1.4020 C   0  0  0  0  0  0  0  0  0  0  0  0
    8.6300   -1.3430    1.3640 H   0  0  0  0  0  0  0  0  0  0  0  0
    7.2050   -1.3390    2.3970 H   0  0  0  0  0  0  0  0  0  0  0  0
    6.8230   -0.8230    0.3300 C   0  0  0  0  0  0  0  0  0  0  0  0
    7.1950   -1.1040   -0.6630 H   0  0  0  0  0  0  0  0  0  0  0  0
    7.0590    0.2390    0.4670 H   0  0  0  0  0  0  0  0  0  0  0  0
    2.3290    0.5180   -1.6350 C   0  0  0  0  0  0  0  0  0  0  0  0
    1.2630    0.2730   -1.5690 H   0  0  0  0  0  0  0  0  0  0  0  0
    2.6530    0.1800   -2.6280 H   0  0  0  0  0  0  0  0  0  0  0  0
    3.0810   -0.2870   -0.5710 C   0  0  0  0  0  0  0  0  0  0  0  0
    2.7140   -0.0260    0.4290 H   0  0  0  0  0  0  0  0  0  0  0  0
    2.8420   -1.3480   -0.7180 H   0  0  0  0  0  0  0  0  0  0  0  0
    4.5990   -0.1050   -0.6300 C   0  0  0  0  0  0  0  0  0  0  0  0
    4.9580   -0.3360   -1.6400 H   0  0  0  0  0  0  0  0  0  0  0  0
    4.8600    0.9390   -0.4220 H   0  0  0  0  0  0  0  0  0  0  0  0
    5.3050   -1.0090    0.3850 C   0  0  0  0  0  0  0  0  0  0  0  0
    4.9420   -0.7800    1.3940 H   0  0  0  0  0  0  0  0  0  0  0  0
    5.0470   -2.0530    0.1750 H   0  0  0  0  0  0  0  0  0  0  0  0
    2.1300    2.6900   -0.2320 C   0  0  0  0  0  0  0  0  0  0  0  0
    2.2740    3.7740   -0.3260 H   0  0  0  0  0  0  0  0  0  0  0  0
    2.8320    2.3610    0.5440 H   0  0  0  0  0  0  0  0  0  0  0  0
    2.5060    2.0380   -1.5660 C   0  0  0  0  0  0  0  0  0  0  0  0
    1.9140    2.4920   -2.3700 H   0  0  0  0  0  0  0  0  0  0  0  0
    3.5480    2.2930   -1.7940 H   0  0  0  0  0  0  0  0  0  0  0  0
    7.4580   -3.1260    1.2290 C   0  0  0  0  0  0  0  0  0  0  0  0
    7.7880   -3.4330    0.2310 H   0  0  0  0  0  0  0  0  0  0  0  0
    6.4300   -3.4720    1.3760 H   0  0  0  0  0  0  0  0  0  0  0  0
    8.0870   -3.6360    1.9650 H   0  0  0  0  0  0  0  0  0  0  0  0
  1  3  1  0  0  0  0
  1  4  2  0  0  0  0
  1 14  1  0  0  0  0
  2  3  1  0  0  0  0
  2  5  2  0  0  0  0
  2  8  1  0  0  0  0
  3 10  2  0  0  0  0
  4  7  1  0  0  0  0
  4 13  1  0  0  0  0
  5  6  1  0  0  0  0
  5  7  1  0  0  0  0
  7 11  2  0  0  0  0
  8  9  1  0  0  0  0
  8 12  1  0  0  0  0
 12 17  2  0  0  0  0
 12 22  1  0  0  0  0
 14 15  1  0  0  0  0
 14 16  1  0  0  0  0
 14 30  1  0  0  0  0
 17 18  1  0  0  0  0
 17 19  1  0  0  0  0
 19 24  2  0  0  0  0
 19 26  1  0  0  0  0
 20 21  1  0  0  0  0
 20 22  2  0  0  0  0
 20 24  1  0  0  0  0
 22 23  1  0  0  0  0
 24 25  1  0  0  0  0
 26 27  1  0  0  0  0
 26 28  1  0  0  0  0
 26 29  1  0  0  0  0
 30 31  1  0  0  0  0
 30 32  1  0  0  0  0
 30 51  1  0  0  0  0
 33 34  1  0  0  0  0
 33 35  1  0  0  0  0
 33 36  1  0  0  0  0
 33 57  1  0  0  0  0
 36 37  1  0  0  0  0
 36 38  1  0  0  0  0
 36 48  1  0  0  0  0
 39 40  1  0  0  0  0
 39 41  1  0  0  0  0
 39 42  1  0  0  0  0
 39 54  1  0  0  0  0
 42 43  1  0  0  0  0
 42 44  1  0  0  0  0
 42 45  1  0  0  0  0
 45 46  1  0  0  0  0
 45 47  1  0  0  0  0
 45 48  1  0  0  0  0
 48 49  1  0  0  0  0
 48 50  1  0  0  0  0
 51 52  1  0  0  0  0
 51 53  1  0  0  0  0
 51 54  1  0  0  0  0
 54 55  1  0  0  0  0
 54 56  1  0  0  0  0
 57 58  1  0  0  0  0
 57 59  1  0  0  0  0
 57 60  1  0  0  0  0
M  CHG  1  13  -1
M  END
>  <IDNUMBER>
AK-693/43460775

>  <NAME>
Embelin, derivative of

>  <ADD_INFO>
http://www.specs.net/enter.php?specsid=AK-693/43460775

>  <H_ACCEPTORS>
4

>  <H_DONORS>
2

>  <ROTATABLE_BONDS>
12

>  <LOGP>
6.98

>  <LOGS>
-7.9499998

>  <TPSA>
66.400002

>  <PRICE>
N07

$$$$
AK-693/43460784
  MOE2011           3D

 66 67  0  0  1  0  0  0  0  0999 V2000
   -3.1140   -0.5930    0.1580 C   0  0  0  0  0  0  0  0  0  0  0  0
   -0.8480   -1.2050    1.2100 C   0  0  0  0  0  0  0  0  0  0  0  0
   -2.1170   -0.4270    1.2580 C   0  0  0  0  0  0  0  0  0  0  0  0
   -0.5650   -2.1040    0.2360 C   0  0  0  0  0  0  0  0  0  0  0  0
   -2.8280   -1.4490   -0.8210 C   0  0  0  0  0  0  0  0  0  0  0  0
   -3.4950   -1.6110   -1.6580 H   0  0  0  0  0  0  0  0  0  0  0  0
   -1.5990   -2.2610   -0.8730 C   0  0  0  0  0  0  0  0  0  0  0  0
   -4.2620    0.1740    0.2950 N   0  0  0  0  0  0  0  0  0  0  0  0
   -4.1940    0.8240    1.0880 H   0  0  0  0  0  0  0  0  0  0  0  0
   -5.4720    0.1900   -0.5090 C   0  0  1  0  0  0  0  0  0  0  0  0
   -2.3910    0.3330    2.1880 O   0  0  0  0  0  0  0  0  0  0  0  0
   -1.4980   -3.0390   -1.8240 O   0  0  0  0  0  0  0  0  0  0  0  0
   -6.6380   -0.4070    0.3100 C   0  0  2  0  0  0  0  0  0  0  0  0
    0.4570   -2.8400    0.1160 O   0  5  0  0  0  0  0  0  0  0  0  0
    0.0840   -0.9490    2.3850 C   0  0  0  0  0  0  0  0  0  0  0  0
   -0.5000   -0.9840    3.3140 H   0  0  0  0  0  0  0  0  0  0  0  0
    0.8210   -1.7560    2.4930 H   0  0  0  0  0  0  0  0  0  0  0  0
   -6.2870   -1.7980    0.7130 N   0  3  0  0  0  0  0  0  0  0  0  0
   -6.9440   -2.1880    1.4000 H   0  0  0  0  0  0  0  0  0  0  0  0
   -5.3510   -1.7750    1.1490 H   0  0  0  0  0  0  0  0  0  0  0  0
   -6.2270   -2.4430   -0.0850 H   0  0  0  0  0  0  0  0  0  0  0  0
   -5.8140    1.6210   -0.9310 C   0  0  0  0  0  0  0  0  0  0  0  0
   -5.8950    2.2670   -0.0480 H   0  0  0  0  0  0  0  0  0  0  0  0
   -5.0070    2.0340   -1.5470 H   0  0  0  0  0  0  0  0  0  0  0  0
   -7.9390   -0.4060   -0.4820 C   0  0  0  0  0  0  0  0  0  0  0  0
   -7.8520   -1.0620   -1.3580 H   0  0  0  0  0  0  0  0  0  0  0  0
   -8.7590   -0.7980    0.1310 H   0  0  0  0  0  0  0  0  0  0  0  0
    0.8330    0.3900    2.3230 C   0  0  0  0  0  0  0  0  0  0  0  0
    0.1200    1.2230    2.2850 H   0  0  0  0  0  0  0  0  0  0  0  0
    1.3970    0.5070    3.2570 H   0  0  0  0  0  0  0  0  0  0  0  0
    8.6190   -1.0660   -0.9220 C   0  0  0  0  0  0  0  0  0  0  0  0
    8.1430   -2.0100   -1.2130 H   0  0  0  0  0  0  0  0  0  0  0  0
    9.1700   -0.6970   -1.7950 H   0  0  0  0  0  0  0  0  0  0  0  0
    7.5510   -0.0500   -0.5140 C   0  0  0  0  0  0  0  0  0  0  0  0
    8.0320    0.8950   -0.2350 H   0  0  0  0  0  0  0  0  0  0  0  0
    7.0230   -0.4210    0.3710 H   0  0  0  0  0  0  0  0  0  0  0  0
    2.6140    1.7870    1.1990 C   0  0  0  0  0  0  0  0  0  0  0  0
    1.9280    2.6390    1.2810 H   0  0  0  0  0  0  0  0  0  0  0  0
    3.2330    1.7920    2.1050 H   0  0  0  0  0  0  0  0  0  0  0  0
    3.5020    2.0060   -0.0290 C   0  0  0  0  0  0  0  0  0  0  0  0
    2.8790    2.0350   -0.9310 H   0  0  0  0  0  0  0  0  0  0  0  0
    3.9720    2.9930    0.0620 H   0  0  0  0  0  0  0  0  0  0  0  0
    4.5940    0.9440   -0.1910 C   0  0  0  0  0  0  0  0  0  0  0  0
    5.1600    0.8660    0.7440 H   0  0  0  0  0  0  0  0  0  0  0  0
    4.1380   -0.0340   -0.3820 H   0  0  0  0  0  0  0  0  0  0  0  0
    5.5350    1.2930   -1.3460 C   0  0  0  0  0  0  0  0  0  0  0  0
    4.9420    1.4680   -2.2520 H   0  0  0  0  0  0  0  0  0  0  0  0
    6.0590    2.2310   -1.1260 H   0  0  0  0  0  0  0  0  0  0  0  0
    6.5580    0.1950   -1.6530 C   0  0  0  0  0  0  0  0  0  0  0  0
    6.0340   -0.7380   -1.8930 H   0  0  0  0  0  0  0  0  0  0  0  0
    7.1120    0.4870   -2.5540 H   0  0  0  0  0  0  0  0  0  0  0  0
    1.8000    0.4910    1.1400 C   0  0  0  0  0  0  0  0  0  0  0  0
    2.4750   -0.3720    1.1550 H   0  0  0  0  0  0  0  0  0  0  0  0
    1.2430    0.4590    0.1970 H   0  0  0  0  0  0  0  0  0  0  0  0
    9.5990   -1.3310    0.2100 C   0  0  0  0  0  0  0  0  0  0  0  0
    9.0840   -1.7380    1.0860 H   0  0  0  0  0  0  0  0  0  0  0  0
   10.1110   -0.4100    0.5090 H   0  0  0  0  0  0  0  0  0  0  0  0
   10.3570   -2.0540   -0.1050 H   0  0  0  0  0  0  0  0  0  0  0  0
   -7.1280    1.6610   -1.7130 C   0  0  0  0  0  0  0  0  0  0  0  0
   -7.3840    2.7000   -1.9480 H   0  0  0  0  0  0  0  0  0  0  0  0
   -6.9950    1.1420   -2.6710 H   0  0  0  0  0  0  0  0  0  0  0  0
   -8.2800    1.0120   -0.9450 C   0  0  0  0  0  0  0  0  0  0  0  0
   -9.1760    0.9870   -1.5760 H   0  0  0  0  0  0  0  0  0  0  0  0
   -8.5230    1.6280   -0.0710 H   0  0  0  0  0  0  0  0  0  0  0  0
   -5.3350   -0.4060   -1.4200 H   0  0  0  0  0  0  0  0  0  0  0  0
   -6.7640    0.1450    1.2500 H   0  0  0  0  0  0  0  0  0  0  0  0
  1  3  1  0  0  0  0
  1  5  2  0  0  0  0
  1  8  1  0  0  0  0
  2  3  1  0  0  0  0
  2  4  2  0  0  0  0
  2 15  1  0  0  0  0
  3 11  2  0  0  0  0
  4  7  1  0  0  0  0
  4 14  1  0  0  0  0
  5  6  1  0  0  0  0
  5  7  1  0  0  0  0
  7 12  2  0  0  0  0
  8  9  1  0  0  0  0
  8 10  1  0  0  0  0
 10 13  1  0  0  0  0
 10 22  1  0  0  0  0
 10 65  1  0  0  0  0
 13 18  1  0  0  0  0
 13 25  1  0  0  0  0
 13 66  1  0  0  0  0
 15 16  1  0  0  0  0
 15 17  1  0  0  0  0
 15 28  1  0  0  0  0
 18 19  1  0  0  0  0
 18 20  1  0  0  0  0
 18 21  1  0  0  0  0
 22 23  1  0  0  0  0
 22 24  1  0  0  0  0
 22 59  1  0  0  0  0
 25 26  1  0  0  0  0
 25 27  1  0  0  0  0
 25 62  1  0  0  0  0
 28 29  1  0  0  0  0
 28 30  1  0  0  0  0
 28 52  1  0  0  0  0
 31 32  1  0  0  0  0
 31 33  1  0  0  0  0
 31 34  1  0  0  0  0
 31 55  1  0  0  0  0
 34 35  1  0  0  0  0
 34 36  1  0  0  0  0
 34 49  1  0  0  0  0
 37 38  1  0  0  0  0
 37 39  1  0  0  0  0
 37 40  1  0  0  0  0
 37 52  1  0  0  0  0
 40 41  1  0  0  0  0
 40 42  1  0  0  0  0
 40 43  1  0  0  0  0
 43 44  1  0  0  0  0
 43 45  1  0  0  0  0
 43 46  1  0  0  0  0
 46 47  1  0  0  0  0
 46 48  1  0  0  0  0
 46 49  1  0  0  0  0
 49 50  1  0  0  0  0
 49 51  1  0  0  0  0
 52 53  1  0  0  0  0
 52 54  1  0  0  0  0
 55 56  1  0  0  0  0
 55 57  1  0  0  0  0
 55 58  1  0  0  0  0
 59 60  1  0  0  0  0
 59 61  1  0  0  0  0
 59 62  1  0  0  0  0
 62 63  1  0  0  0  0
 62 64  1  0  0  0  0
M  CHG  1  14  -1
M  CHG  1  18   1
M  END
>  <IDNUMBER>
AK-693/43460784

>  <NAME>
Embelin, derivative of

>  <ADD_INFO>
http://www.specs.net/enter.php?specsid=AK-693/43460784

>  <H_ACCEPTORS>
5

>  <H_DONORS>
3

>  <ROTATABLE_BONDS>
12

>  <LOGP>
5.3600001

>  <LOGS>
-6.6199999

>  <TPSA>
92.419998

>  <PRICE>
N07

$$$$
AK-693/43460785
  MOE2011           3D

 75 77  0  0  1  0  0  0  0  0999 V2000
   -0.5340    3.3070    0.5080 C   0  0  0  0  0  0  0  0  0  0  0  0
   -0.9680    2.4180    1.4250 N   0  0  0  0  0  0  0  0  0  0  0  0
    0.7300    3.9200    0.6400 C   0  0  0  0  0  0  0  0  0  0  0  0
   -1.3610    3.6190   -0.5980 C   0  0  0  0  0  0  0  0  0  0  0  0
   -2.5660    3.0500   -0.7640 N   0  0  0  0  0  0  0  0  0  0  0  0
   -6.3850   -0.3470   -0.5070 N   0  0  0  0  0  0  0  0  0  0  0  0
   -5.8190   -0.0550   -1.2910 H   0  0  0  0  0  0  0  0  0  0  0  0
   -5.9660   -0.1110    0.7850 C   0  0  0  0  0  0  0  0  0  0  0  0
    1.1450    4.8250   -0.3430 C   0  0  0  0  0  0  0  0  0  0  0  0
   -2.9790    2.1590    0.1510 C   0  0  0  0  0  0  0  0  0  0  0  0
   -0.9280    4.5300   -1.5440 C   0  0  0  0  0  0  0  0  0  0  0  0
   -1.5590    4.7760   -2.3930 H   0  0  0  0  0  0  0  0  0  0  0  0
    0.3130    5.1250   -1.4150 C   0  0  0  0  0  0  0  0  0  0  0  0
   -7.6720   -1.0000   -0.8490 C   0  0  3  0  0  0  0  0  0  0  0  0
   -2.1720    1.8430    1.2580 C   0  0  0  0  0  0  0  0  0  0  0  0
   -8.8980   -0.0720   -0.5390 C   0  0  0  0  0  0  0  0  0  0  0  0
   -4.6630    0.5910    0.9270 C   0  0  0  0  0  0  0  0  0  0  0  0
   -4.2160    1.5390    0.0020 C   0  0  0  0  0  0  0  0  0  0  0  0
   -4.8350    1.8270   -0.8440 H   0  0  0  0  0  0  0  0  0  0  0  0
   -6.5540   -0.4760    1.7960 O   0  0  0  0  0  0  0  0  0  0  0  0
   -9.7880   -0.5310    0.2300 O   0  0  0  0  0  0  0  0  0  0  0  0
   -3.8690    0.2940    2.0350 C   0  0  0  0  0  0  0  0  0  0  0  0
   -4.2040   -0.4280    2.7770 H   0  0  0  0  0  0  0  0  0  0  0  0
   -2.6320    0.9200    2.1880 C   0  0  0  0  0  0  0  0  0  0  0  0
   -2.0140    0.6790    3.0500 H   0  0  0  0  0  0  0  0  0  0  0  0
   -7.7630   -2.4600   -0.3330 C   0  0  0  0  0  0  0  0  0  0  0  0
   -7.9800   -2.4560    0.7420 H   0  0  0  0  0  0  0  0  0  0  0  0
    2.3550    5.4680   -0.3550 O   0  0  0  0  0  0  0  0  0  0  0  0
    2.9330    5.0960    0.3310 H   0  0  0  0  0  0  0  0  0  0  0  0
    0.7300    6.0160   -2.3620 O   0  0  0  0  0  0  0  0  0  0  0  0
    1.6170    6.2940   -2.0530 H   0  0  0  0  0  0  0  0  0  0  0  0
   -8.8640    1.0460   -1.1390 O   0  5  0  0  0  0  0  0  0  0  0  0
    1.5930    3.5690    1.8360 C   0  0  0  0  0  0  0  0  0  0  0  0
    2.3140    4.3650    2.0530 H   0  0  0  0  0  0  0  0  0  0  0  0
    0.9550    3.5410    2.7300 H   0  0  0  0  0  0  0  0  0  0  0  0
   -8.8900   -3.2300   -1.0400 C   0  0  0  0  0  0  0  0  0  0  0  0
   -8.7160   -3.2810   -2.1200 H   0  0  0  0  0  0  0  0  0  0  0  0
   -9.8680   -2.7710   -0.8790 H   0  0  0  0  0  0  0  0  0  0  0  0
   -8.9510   -4.2570   -0.6620 H   0  0  0  0  0  0  0  0  0  0  0  0
   -6.4560   -3.2410   -0.5460 C   0  0  0  0  0  0  0  0  0  0  0  0
   -6.1550   -3.2280   -1.5990 H   0  0  0  0  0  0  0  0  0  0  0  0
   -6.5750   -4.2870   -0.2430 H   0  0  0  0  0  0  0  0  0  0  0  0
   -5.6370   -2.8290    0.0490 H   0  0  0  0  0  0  0  0  0  0  0  0
    2.3170    2.2230    1.7060 C   0  0  0  0  0  0  0  0  0  0  0  0
    2.7740    1.9860    2.6750 H   0  0  0  0  0  0  0  0  0  0  0  0
    1.5980    1.4220    1.4960 H   0  0  0  0  0  0  0  0  0  0  0  0
    7.1120   -4.8950   -0.4580 C   0  0  0  0  0  0  0  0  0  0  0  0
    7.9090   -4.7530   -1.1970 H   0  0  0  0  0  0  0  0  0  0  0  0
    7.5920   -5.1690    0.4890 H   0  0  0  0  0  0  0  0  0  0  0  0
    6.3260   -3.5940   -0.2860 C   0  0  0  0  0  0  0  0  0  0  0  0
    5.5310   -3.7420    0.4550 H   0  0  0  0  0  0  0  0  0  0  0  0
    5.8430   -3.3410   -1.2360 H   0  0  0  0  0  0  0  0  0  0  0  0
    7.2380   -2.4490    0.1600 C   0  0  0  0  0  0  0  0  0  0  0  0
    7.9950   -2.2570   -0.6100 H   0  0  0  0  0  0  0  0  0  0  0  0
    7.7790   -2.7510    1.0650 H   0  0  0  0  0  0  0  0  0  0  0  0
    3.4110    2.2190    0.6340 C   0  0  0  0  0  0  0  0  0  0  0  0
    2.9820    2.4610   -0.3450 H   0  0  0  0  0  0  0  0  0  0  0  0
    4.1550    2.9900    0.8660 H   0  0  0  0  0  0  0  0  0  0  0  0
    4.0930    0.8510    0.5520 C   0  0  0  0  0  0  0  0  0  0  0  0
    4.5080    0.5950    1.5340 H   0  0  0  0  0  0  0  0  0  0  0  0
    3.3470    0.0870    0.3030 H   0  0  0  0  0  0  0  0  0  0  0  0
    5.2050    0.8440   -0.5000 C   0  0  0  0  0  0  0  0  0  0  0  0
    4.8070    1.2250   -1.4490 H   0  0  0  0  0  0  0  0  0  0  0  0
    6.0050    1.5290   -0.1960 H   0  0  0  0  0  0  0  0  0  0  0  0
    5.7880   -0.5500   -0.7550 C   0  0  0  0  0  0  0  0  0  0  0  0
    4.9850   -1.2120   -1.0990 H   0  0  0  0  0  0  0  0  0  0  0  0
    6.5110   -0.4730   -1.5770 H   0  0  0  0  0  0  0  0  0  0  0  0
    6.4800   -1.1540    0.4690 C   0  0  0  0  0  0  0  0  0  0  0  0
    7.1940   -0.4260    0.8740 H   0  0  0  0  0  0  0  0  0  0  0  0
    5.7450   -1.3510    1.2590 H   0  0  0  0  0  0  0  0  0  0  0  0
    6.2110   -6.0340   -0.9070 C   0  0  0  0  0  0  0  0  0  0  0  0
    5.7420   -5.8070   -1.8690 H   0  0  0  0  0  0  0  0  0  0  0  0
    5.4200   -6.2220   -0.1740 H   0  0  0  0  0  0  0  0  0  0  0  0
    6.7930   -6.9550   -1.0220 H   0  0  0  0  0  0  0  0  0  0  0  0
   -7.6450   -1.0550   -1.9480 H   0  0  0  0  0  0  0  0  0  0  0  0
  1  2  1  0  0  0  0
  1  3  2  0  0  0  0
  1  4  1  0  0  0  0
  2 15  2  0  0  0  0
  3  9  1  0  0  0  0
  3 33  1  0  0  0  0
  4  5  1  0  0  0  0
  4 11  2  0  0  0  0
  5 10  2  0  0  0  0
  6  7  1  0  0  0  0
  6  8  1  0  0  0  0
  6 14  1  0  0  0  0
  8 17  1  0  0  0  0
  8 20  2  0  0  0  0
  9 13  2  0  0  0  0
  9 28  1  0  0  0  0
 10 15  1  0  0  0  0
 10 18  1  0  0  0  0
 11 12  1  0  0  0  0
 11 13  1  0  0  0  0
 13 30  1  0  0  0  0
 14 16  1  0  0  0  0
 14 26  1  0  0  0  0
 14 75  1  0  0  0  0
 15 24  1  0  0  0  0
 16 21  2  0  0  0  0
 16 32  1  0  0  0  0
 17 18  2  0  0  0  0
 17 22  1  0  0  0  0
 18 19  1  0  0  0  0
 22 23  1  0  0  0  0
 22 24  2  0  0  0  0
 24 25  1  0  0  0  0
 26 27  1  0  0  0  0
 26 36  1  0  0  0  0
 26 40  1  0  0  0  0
 28 29  1  0  0  0  0
 30 31  1  0  0  0  0
 33 34  1  0  0  0  0
 33 35  1  0  0  0  0
 33 44  1  0  0  0  0
 36 37  1  0  0  0  0
 36 38  1  0  0  0  0
 36 39  1  0  0  0  0
 40 41  1  0  0  0  0
 40 42  1  0  0  0  0
 40 43  1  0  0  0  0
 44 45  1  0  0  0  0
 44 46  1  0  0  0  0
 44 56  1  0  0  0  0
 47 48  1  0  0  0  0
 47 49  1  0  0  0  0
 47 50  1  0  0  0  0
 47 71  1  0  0  0  0
 50 51  1  0  0  0  0
 50 52  1  0  0  0  0
 50 53  1  0  0  0  0
 53 54  1  0  0  0  0
 53 55  1  0  0  0  0
 53 68  1  0  0  0  0
 56 57  1  0  0  0  0
 56 58  1  0  0  0  0
 56 59  1  0  0  0  0
 59 60  1  0  0  0  0
 59 61  1  0  0  0  0
 59 62  1  0  0  0  0
 62 63  1  0  0  0  0
 62 64  1  0  0  0  0
 62 65  1  0  0  0  0
 65 66  1  0  0  0  0
 65 67  1  0  0  0  0
 65 68  1  0  0  0  0
 68 69  1  0  0  0  0
 68 70  1  0  0  0  0
 71 72  1  0  0  0  0
 71 73  1  0  0  0  0
 71 74  1  0  0  0  0
M  CHG  1  32  -1
M  END
>  <IDNUMBER>
AK-693/43460785

>  <NAME>
Embelin, derivative of

>  <ADD_INFO>
http://www.specs.net/enter.php?specsid=AK-693/43460785

>  <H_ACCEPTORS>
6

>  <H_DONORS>
4

>  <ROTATABLE_BONDS>
15

>  <LOGP>
6.5799999

>  <LOGS>
-9.0699997

>  <TPSA>
132.64

>  <PRICE>
N07

$$$$
AK-693/43460789
  MOE2011           3D

 77 80  0  0  1  0  0  0  0  0999 V2000
   -1.9440    3.4190   -1.8750 S   0  0  0  0  0  0  0  0  0  0  0  0
    2.9690    1.2140   -1.0380 N   0  0  0  0  0  0  0  0  0  0  0  0
    4.0180    0.7390   -0.3390 C   0  0  0  0  0  0  0  0  0  0  0  0
    4.7100   -0.4120   -0.7690 C   0  0  0  0  0  0  0  0  0  0  0  0
    4.4170    1.4040    0.8460 C   0  0  0  0  0  0  0  0  0  0  0  0
    3.7780    2.4980    1.2930 N   0  0  0  0  0  0  0  0  0  0  0  0
   -2.5310    3.1240   -0.3210 N   0  0  0  0  0  0  0  0  0  0  0  0
    5.7930   -0.8690   -0.0100 C   0  0  0  0  0  0  0  0  0  0  0  0
   -0.6080    4.4070   -1.5580 N   0  0  0  0  0  0  0  0  0  0  0  0
   -0.8920    5.3630   -1.3420 H   0  0  0  0  0  0  0  0  0  0  0  0
    2.3220    2.3020   -0.5910 C   0  0  0  0  0  0  0  0  0  0  0  0
    5.4900    0.9230    1.5750 C   0  0  0  0  0  0  0  0  0  0  0  0
    5.7990    1.4280    2.4860 H   0  0  0  0  0  0  0  0  0  0  0  0
    6.1690   -0.2020    1.1490 C   0  0  0  0  0  0  0  0  0  0  0  0
    2.7320    2.9510    0.5850 C   0  0  0  0  0  0  0  0  0  0  0  0
   -2.8980    4.2690   -2.5560 O   0  0  0  0  0  0  0  0  0  0  0  0
   -1.5130    2.1700   -2.4650 O   0  0  0  0  0  0  0  0  0  0  0  0
    1.2300    2.7900   -1.2960 C   0  0  0  0  0  0  0  0  0  0  0  0
    0.9400    2.2840   -2.2140 H   0  0  0  0  0  0  0  0  0  0  0  0
    0.5200    3.9020   -0.8470 C   0  0  0  0  0  0  0  0  0  0  0  0
    2.0400    4.0760    1.0120 C   0  0  0  0  0  0  0  0  0  0  0  0
    2.3610    4.5850    1.9190 H   0  0  0  0  0  0  0  0  0  0  0  0
    6.5500   -1.9680   -0.3220 O   0  0  0  0  0  0  0  0  0  0  0  0
    6.2290   -2.3540   -1.1540 H   0  0  0  0  0  0  0  0  0  0  0  0
    7.2240   -0.6680    1.8800 O   0  0  0  0  0  0  0  0  0  0  0  0
    7.5280   -1.4580    1.3860 H   0  0  0  0  0  0  0  0  0  0  0  0
    0.9410    4.5610    0.3020 C   0  0  0  0  0  0  0  0  0  0  0  0
    0.4200    5.4410    0.6690 H   0  0  0  0  0  0  0  0  0  0  0  0
    4.2530   -1.1370   -2.0220 C   0  0  0  0  0  0  0  0  0  0  0  0
    3.6640   -0.4790   -2.6690 H   0  0  0  0  0  0  0  0  0  0  0  0
    5.1390   -1.3730   -2.6250 H   0  0  0  0  0  0  0  0  0  0  0  0
   -3.1500    4.2250    0.4460 C   0  0  0  0  0  0  0  0  0  0  0  0
   -2.3750    4.9040    0.8180 H   0  0  0  0  0  0  0  0  0  0  0  0
   -3.8230    4.7980   -0.2000 H   0  0  0  0  0  0  0  0  0  0  0  0
   -2.0300    1.9640    0.4520 C   0  0  0  0  0  0  0  0  0  0  0  0
   -2.7630    1.1550    0.3590 H   0  0  0  0  0  0  0  0  0  0  0  0
   -1.0860    1.5950    0.0420 H   0  0  0  0  0  0  0  0  0  0  0  0
    3.4810   -2.4340   -1.7380 C   0  0  0  0  0  0  0  0  0  0  0  0
    3.3200   -2.9600   -2.6880 H   0  0  0  0  0  0  0  0  0  0  0  0
    4.0970   -3.1000   -1.1210 H   0  0  0  0  0  0  0  0  0  0  0  0
   -4.1260   -5.5410    0.5480 C   0  0  0  0  0  0  0  0  0  0  0  0
   -4.2910   -6.3570   -0.1650 H   0  0  0  0  0  0  0  0  0  0  0  0
   -3.4700   -5.9340    1.3330 H   0  0  0  0  0  0  0  0  0  0  0  0
   -3.4310   -4.3910   -0.1860 C   0  0  0  0  0  0  0  0  0  0  0  0
   -4.0980   -3.9930   -0.9610 H   0  0  0  0  0  0  0  0  0  0  0  0
   -2.5580   -4.8070   -0.7010 H   0  0  0  0  0  0  0  0  0  0  0  0
   -0.9540   -2.5010   -0.6170 C   0  0  0  0  0  0  0  0  0  0  0  0
   -1.1210   -3.2210   -1.4260 H   0  0  0  0  0  0  0  0  0  0  0  0
   -0.3290   -2.9920    0.1380 H   0  0  0  0  0  0  0  0  0  0  0  0
   -2.2890   -2.1060    0.0180 C   0  0  0  0  0  0  0  0  0  0  0  0
   -2.1140   -1.3050    0.7470 H   0  0  0  0  0  0  0  0  0  0  0  0
   -2.9580   -1.6950   -0.7480 H   0  0  0  0  0  0  0  0  0  0  0  0
   -2.9860   -3.2610    0.7460 C   0  0  0  0  0  0  0  0  0  0  0  0
   -2.3200   -3.6600    1.5200 H   0  0  0  0  0  0  0  0  0  0  0  0
   -3.8590   -2.8460    1.2630 H   0  0  0  0  0  0  0  0  0  0  0  0
    2.1300   -2.2530   -1.0360 C   0  0  0  0  0  0  0  0  0  0  0  0
    1.7860   -3.2470   -0.7250 H   0  0  0  0  0  0  0  0  0  0  0  0
    2.2530   -1.6680   -0.1180 H   0  0  0  0  0  0  0  0  0  0  0  0
    1.0620   -1.6210   -1.9320 C   0  0  0  0  0  0  0  0  0  0  0  0
    1.4420   -0.6970   -2.3800 H   0  0  0  0  0  0  0  0  0  0  0  0
    0.8330   -2.2990   -2.7630 H   0  0  0  0  0  0  0  0  0  0  0  0
   -0.2270   -1.2770   -1.1800 C   0  0  0  0  0  0  0  0  0  0  0  0
    0.0040   -0.5800   -0.3650 H   0  0  0  0  0  0  0  0  0  0  0  0
   -0.8960   -0.7470   -1.8690 H   0  0  0  0  0  0  0  0  0  0  0  0
   -1.8210    2.3160    1.9190 C   0  0  0  0  0  0  0  0  0  0  0  0
   -1.4630    1.4400    2.4710 H   0  0  0  0  0  0  0  0  0  0  0  0
   -1.0360    3.0770    2.0020 H   0  0  0  0  0  0  0  0  0  0  0  0
   -3.9620    3.6520    1.6010 C   0  0  0  0  0  0  0  0  0  0  0  0
   -4.4750    4.4550    2.1420 H   0  0  0  0  0  0  0  0  0  0  0  0
   -4.7450    2.9960    1.1980 H   0  0  0  0  0  0  0  0  0  0  0  0
   -5.4660   -5.1560    1.1550 C   0  0  0  0  0  0  0  0  0  0  0  0
   -6.1300   -4.7230    0.4010 H   0  0  0  0  0  0  0  0  0  0  0  0
   -5.3470   -4.4330    1.9680 H   0  0  0  0  0  0  0  0  0  0  0  0
   -5.9580   -6.0410    1.5720 H   0  0  0  0  0  0  0  0  0  0  0  0
   -3.0950    2.8490    2.5700 C   0  0  0  0  0  0  0  0  0  0  0  0
   -3.6870    2.0190    2.9720 H   0  0  0  0  0  0  0  0  0  0  0  0
   -2.8180    3.4730    3.4290 H   0  0  0  0  0  0  0  0  0  0  0  0
  1  7  1  0  0  0  0
  1  9  1  0  0  0  0
  1 16  2  0  0  0  0
  1 17  2  0  0  0  0
  2  3  2  0  0  0  0
  2 11  1  0  0  0  0
  3  4  1  0  0  0  0
  3  5  1  0  0  0  0
  4  8  2  0  0  0  0
  4 29  1  0  0  0  0
  5  6  2  0  0  0  0
  5 12  1  0  0  0  0
  6 15  1  0  0  0  0
  7 32  1  0  0  0  0
  7 35  1  0  0  0  0
  8 14  1  0  0  0  0
  8 23  1  0  0  0  0
  9 10  1  0  0  0  0
  9 20  1  0  0  0  0
 11 15  2  0  0  0  0
 11 18  1  0  0  0  0
 12 13  1  0  0  0  0
 12 14  2  0  0  0  0
 14 25  1  0  0  0  0
 15 21  1  0  0  0  0
 18 19  1  0  0  0  0
 18 20  2  0  0  0  0
 20 27  1  0  0  0  0
 21 22  1  0  0  0  0
 21 27  2  0  0  0  0
 23 24  1  0  0  0  0
 25 26  1  0  0  0  0
 27 28  1  0  0  0  0
 29 30  1  0  0  0  0
 29 31  1  0  0  0  0
 29 38  1  0  0  0  0
 32 33  1  0  0  0  0
 32 34  1  0  0  0  0
 32 68  1  0  0  0  0
 35 36  1  0  0  0  0
 35 37  1  0  0  0  0
 35 65  1  0  0  0  0
 38 39  1  0  0  0  0
 38 40  1  0  0  0  0
 38 56  1  0  0  0  0
 41 42  1  0  0  0  0
 41 43  1  0  0  0  0
 41 44  1  0  0  0  0
 41 71  1  0  0  0  0
 44 45  1  0  0  0  0
 44 46  1  0  0  0  0
 44 53  1  0  0  0  0
 47 48  1  0  0  0  0
 47 49  1  0  0  0  0
 47 50  1  0  0  0  0
 47 62  1  0  0  0  0
 50 51  1  0  0  0  0
 50 52  1  0  0  0  0
 50 53  1  0  0  0  0
 53 54  1  0  0  0  0
 53 55  1  0  0  0  0
 56 57  1  0  0  0  0
 56 58  1  0  0  0  0
 56 59  1  0  0  0  0
 59 60  1  0  0  0  0
 59 61  1  0  0  0  0
 59 62  1  0  0  0  0
 62 63  1  0  0  0  0
 62 64  1  0  0  0  0
 65 66  1  0  0  0  0
 65 67  1  0  0  0  0
 65 75  1  0  0  0  0
 68 69  1  0  0  0  0
 68 70  1  0  0  0  0
 68 75  1  0  0  0  0
 71 72  1  0  0  0  0
 71 73  1  0  0  0  0
 71 74  1  0  0  0  0
 75 76  1  0  0  0  0
 75 77  1  0  0  0  0
M  END
>  <IDNUMBER>
AK-693/43460789

>  <NAME>
Embelin, derivative of

>  <ADD_INFO>
http://www.specs.net/enter.php?specsid=AK-693/43460789

>  <H_ACCEPTORS>
6

>  <H_DONORS>
3

>  <ROTATABLE_BONDS>
13

>  <LOGP>
7.3099999

>  <LOGS>
-9.8199997

>  <TPSA>
124.03

>  <PRICE>
N07

$$$$
AK-693/43460790
  MOE2011           3D

 63 63  0  0  0  0  0  0  0  0999 V2000
   -2.4580   -0.3010    0.2110 C   0  0  0  0  0  0  0  0  0  0  0  0
   -2.2490    1.0230    0.0500 C   0  0  0  0  0  0  0  0  0  0  0  0
   -3.7430   -0.8700   -0.3340 C   0  0  0  0  0  0  0  0  0  0  0  0
   -3.9480    1.0710   -1.7970 C   0  0  0  0  0  0  0  0  0  0  0  0
   -4.3290    1.6260   -2.6450 H   0  0  0  0  0  0  0  0  0  0  0  0
   -4.1900   -0.2290   -1.6130 C   0  0  0  0  0  0  0  0  0  0  0  0
   -3.1990    1.8470   -0.7810 C   0  0  0  0  0  0  0  0  0  0  0  0
   -4.4990   -1.7940    0.1480 N   0  0  0  0  0  0  0  0  0  0  0  0
   -3.4120    3.1180   -0.7700 N   0  0  0  0  0  0  0  0  0  0  0  0
   -1.1340    1.6820    0.5340 O   0  0  0  0  0  0  0  0  0  0  0  0
   -0.7200    1.1630    1.2410 H   0  0  0  0  0  0  0  0  0  0  0  0
   -4.9370   -0.9820   -2.4970 O   0  0  0  0  0  0  0  0  0  0  0  0
   -5.2030   -0.4220   -3.2450 H   0  0  0  0  0  0  0  0  0  0  0  0
   -1.4460   -1.2570    0.8080 C   0  0  0  0  0  0  0  0  0  0  0  0
   -0.5270   -0.7400    1.1000 H   0  0  0  0  0  0  0  0  0  0  0  0
   -1.8260   -1.6640    1.7490 H   0  0  0  0  0  0  0  0  0  0  0  0
   -2.7700    6.1770    1.1640 O   0  0  0  0  0  0  0  0  0  0  0  0
   -3.2330    7.0320    1.1350 H   0  0  0  0  0  0  0  0  0  0  0  0
   -6.6740   -2.2560    1.7060 O   0  0  0  0  0  0  0  0  0  0  0  0
   -6.4780   -1.7470    0.8910 H   0  0  0  0  0  0  0  0  0  0  0  0
   -4.2850   -2.4090    1.4510 C   0  0  0  0  0  0  0  0  0  0  0  0
   -3.4650   -3.1310    1.4280 H   0  0  0  0  0  0  0  0  0  0  0  0
   -4.0950   -1.6410    2.2090 H   0  0  0  0  0  0  0  0  0  0  0  0
   -2.7380    3.9640    0.2070 C   0  0  0  0  0  0  0  0  0  0  0  0
   -2.7920    3.5460    1.2190 H   0  0  0  0  0  0  0  0  0  0  0  0
   -1.6810    4.0940   -0.0520 H   0  0  0  0  0  0  0  0  0  0  0  0
   -5.5710   -3.1530    1.8130 C   0  0  0  0  0  0  0  0  0  0  0  0
   -5.5280   -3.5410    2.8340 H   0  0  0  0  0  0  0  0  0  0  0  0
   -5.7470   -3.9870    1.1260 H   0  0  0  0  0  0  0  0  0  0  0  0
   -3.4100    5.3340    0.2130 C   0  0  0  0  0  0  0  0  0  0  0  0
   -4.4680    5.2440    0.4810 H   0  0  0  0  0  0  0  0  0  0  0  0
   -3.3410    5.8030   -0.7740 H   0  0  0  0  0  0  0  0  0  0  0  0
   -1.0370   -2.4080   -0.1270 C   0  0  0  0  0  0  0  0  0  0  0  0
   -0.3480   -3.0670    0.4150 H   0  0  0  0  0  0  0  0  0  0  0  0
   -1.9100   -3.0290   -0.3590 H   0  0  0  0  0  0  0  0  0  0  0  0
    7.0820    1.1330    0.8890 C   0  0  0  0  0  0  0  0  0  0  0  0
    6.9820    2.0450    1.4900 H   0  0  0  0  0  0  0  0  0  0  0  0
    7.7700    0.4720    1.4290 H   0  0  0  0  0  0  0  0  0  0  0  0
    5.7050    0.4740    0.7760 C   0  0  0  0  0  0  0  0  0  0  0  0
    5.0260    1.1520    0.2470 H   0  0  0  0  0  0  0  0  0  0  0  0
    5.3020    0.3460    1.7890 H   0  0  0  0  0  0  0  0  0  0  0  0
    5.7440   -0.8870    0.0770 C   0  0  0  0  0  0  0  0  0  0  0  0
    6.5200   -1.5080    0.5410 H   0  0  0  0  0  0  0  0  0  0  0  0
    6.0240   -0.7630   -0.9760 H   0  0  0  0  0  0  0  0  0  0  0  0
   -0.3950   -1.9820   -1.4540 C   0  0  0  0  0  0  0  0  0  0  0  0
   -0.1530   -2.8890   -2.0220 H   0  0  0  0  0  0  0  0  0  0  0  0
   -1.1320   -1.4380   -2.0570 H   0  0  0  0  0  0  0  0  0  0  0  0
    0.8680   -1.1230   -1.3400 C   0  0  0  0  0  0  0  0  0  0  0  0
    1.2060   -0.8840   -2.3570 H   0  0  0  0  0  0  0  0  0  0  0  0
    0.6330   -0.1660   -0.8630 H   0  0  0  0  0  0  0  0  0  0  0  0
    2.0070   -1.8130   -0.5870 C   0  0  0  0  0  0  0  0  0  0  0  0
    1.7130   -1.9970    0.4530 H   0  0  0  0  0  0  0  0  0  0  0  0
    2.2140   -2.7870   -1.0450 H   0  0  0  0  0  0  0  0  0  0  0  0
    3.2770   -0.9580   -0.6000 C   0  0  0  0  0  0  0  0  0  0  0  0
    3.5840   -0.7730   -1.6370 H   0  0  0  0  0  0  0  0  0  0  0  0
    3.0590    0.0150   -0.1460 H   0  0  0  0  0  0  0  0  0  0  0  0
    4.4160   -1.6470    0.1560 C   0  0  0  0  0  0  0  0  0  0  0  0
    4.1330   -1.7850    1.2060 H   0  0  0  0  0  0  0  0  0  0  0  0
    4.5700   -2.6490   -0.2640 H   0  0  0  0  0  0  0  0  0  0  0  0
    7.6880    1.5040   -0.4560 C   0  0  0  0  0  0  0  0  0  0  0  0
    7.0100    2.1430   -1.0300 H   0  0  0  0  0  0  0  0  0  0  0  0
    7.9160    0.6160   -1.0510 H   0  0  0  0  0  0  0  0  0  0  0  0
    8.6240    2.0520   -0.3070 H   0  0  0  0  0  0  0  0  0  0  0  0
  1  2  2  0  0  0  0
  1  3  1  0  0  0  0
  1 14  1  0  0  0  0
  2  7  1  0  0  0  0
  2 10  1  0  0  0  0
  3  6  1  0  0  0  0
  3  8  2  0  0  0  0
  4  5  1  0  0  0  0
  4  6  2  0  0  0  0
  4  7  1  0  0  0  0
  6 12  1  0  0  0  0
  7  9  2  0  0  0  0
  8 21  1  0  0  0  0
  9 24  1  0  0  0  0
 10 11  1  0  0  0  0
 12 13  1  0  0  0  0
 14 15  1  0  0  0  0
 14 16  1  0  0  0  0
 14 33  1  0  0  0  0
 17 18  1  0  0  0  0
 17 30  1  0  0  0  0
 19 20  1  0  0  0  0
 19 27  1  0  0  0  0
 21 22  1  0  0  0  0
 21 23  1  0  0  0  0
 21 27  1  0  0  0  0
 24 25  1  0  0  0  0
 24 26  1  0  0  0  0
 24 30  1  0  0  0  0
 27 28  1  0  0  0  0
 27 29  1  0  0  0  0
 30 31  1  0  0  0  0
 30 32  1  0  0  0  0
 33 34  1  0  0  0  0
 33 35  1  0  0  0  0
 33 45  1  0  0  0  0
 36 37  1  0  0  0  0
 36 38  1  0  0  0  0
 36 39  1  0  0  0  0
 36 60  1  0  0  0  0
 39 40  1  0  0  0  0
 39 41  1  0  0  0  0
 39 42  1  0  0  0  0
 42 43  1  0  0  0  0
 42 44  1  0  0  0  0
 42 57  1  0  0  0  0
 45 46  1  0  0  0  0
 45 47  1  0  0  0  0
 45 48  1  0  0  0  0
 48 49  1  0  0  0  0
 48 50  1  0  0  0  0
 48 51  1  0  0  0  0
 51 52  1  0  0  0  0
 51 53  1  0  0  0  0
 51 54  1  0  0  0  0
 54 55  1  0  0  0  0
 54 56  1  0  0  0  0
 54 57  1  0  0  0  0
 57 58  1  0  0  0  0
 57 59  1  0  0  0  0
 60 61  1  0  0  0  0
 60 62  1  0  0  0  0
 60 63  1  0  0  0  0
M  END
>  <IDNUMBER>
AK-693/43460790

>  <NAME>
Embelin, derivative of

>  <ADD_INFO>
http://www.specs.net/enter.php?specsid=AK-693/43460790

>  <H_ACCEPTORS>
6

>  <H_DONORS>
4

>  <ROTATABLE_BONDS>
14

>  <LOGP>
3.8499999

>  <LOGS>
-5.2600002

>  <TPSA>
105.64

>  <PRICE>
N07

$$$$
AK-693/43460791
  MOE2011           3D

 57 59  0  0  0  0  0  0  0  0999 V2000
   -3.6920    0.0550   -0.8960 N   0  0  0  0  0  0  0  0  0  0  0  0
   -3.6580   -1.0580   -0.1350 C   0  0  0  0  0  0  0  0  0  0  0  0
   -2.9930   -2.2190   -0.5810 C   0  0  0  0  0  0  0  0  0  0  0  0
   -4.2950   -1.0510    1.1300 C   0  0  0  0  0  0  0  0  0  0  0  0
   -4.9370    0.0360    1.5900 N   0  0  0  0  0  0  0  0  0  0  0  0
   -4.3290    1.1430   -0.4350 C   0  0  0  0  0  0  0  0  0  0  0  0
   -2.9740   -3.3460    0.2480 C   0  0  0  0  0  0  0  0  0  0  0  0
   -4.9590    1.1330    0.8200 C   0  0  0  0  0  0  0  0  0  0  0  0
   -4.2620   -2.1840    1.9240 C   0  0  0  0  0  0  0  0  0  0  0  0
   -4.7500   -2.1820    2.8940 H   0  0  0  0  0  0  0  0  0  0  0  0
   -3.6070   -3.3190    1.4850 C   0  0  0  0  0  0  0  0  0  0  0  0
   -4.3670    2.2970   -1.2070 C   0  0  0  0  0  0  0  0  0  0  0  0
   -3.8740    2.2940   -2.1770 H   0  0  0  0  0  0  0  0  0  0  0  0
   -5.6110    2.2760    1.2650 C   0  0  0  0  0  0  0  0  0  0  0  0
   -6.0970    2.2550    2.2390 H   0  0  0  0  0  0  0  0  0  0  0  0
   -5.0220    3.4450   -0.7570 C   0  0  0  0  0  0  0  0  0  0  0  0
   -5.6490    3.4350    0.4870 C   0  0  0  0  0  0  0  0  0  0  0  0
   -2.3610   -4.5310   -0.0640 O   0  0  0  0  0  0  0  0  0  0  0  0
   -1.9310   -4.4660   -0.9320 H   0  0  0  0  0  0  0  0  0  0  0  0
   -5.0190    4.8330   -1.7830 Cl  0  0  0  0  0  0  0  0  0  0  0  0
   -6.4820    4.8080    1.1200 Cl  0  0  0  0  0  0  0  0  0  0  0  0
   -3.5810   -4.4300    2.2790 O   0  0  0  0  0  0  0  0  0  0  0  0
   -3.0710   -5.0870    1.7600 H   0  0  0  0  0  0  0  0  0  0  0  0
   -2.3080   -2.2170   -1.9340 C   0  0  0  0  0  0  0  0  0  0  0  0
   -2.5380   -3.1620   -2.4420 H   0  0  0  0  0  0  0  0  0  0  0  0
   -2.7340   -1.4490   -2.5910 H   0  0  0  0  0  0  0  0  0  0  0  0
   -0.7850   -2.0420   -1.8580 C   0  0  0  0  0  0  0  0  0  0  0  0
   -0.3550   -2.8050   -1.2000 H   0  0  0  0  0  0  0  0  0  0  0  0
   -0.3730   -2.2170   -2.8590 H   0  0  0  0  0  0  0  0  0  0  0  0
    5.6340    2.1420    1.8230 C   0  0  0  0  0  0  0  0  0  0  0  0
    4.5580    2.1440    2.0300 H   0  0  0  0  0  0  0  0  0  0  0  0
    6.0780    1.3320    2.4130 H   0  0  0  0  0  0  0  0  0  0  0  0
    5.8900    1.9030    0.3350 C   0  0  0  0  0  0  0  0  0  0  0  0
    6.9670    1.9850    0.1410 H   0  0  0  0  0  0  0  0  0  0  0  0
    5.4030    2.6870   -0.2570 H   0  0  0  0  0  0  0  0  0  0  0  0
    3.9010    0.3540   -0.1150 C   0  0  0  0  0  0  0  0  0  0  0  0
    3.4370    1.1630   -0.6900 H   0  0  0  0  0  0  0  0  0  0  0  0
    3.5360    0.4320    0.9150 H   0  0  0  0  0  0  0  0  0  0  0  0
    5.4230    0.5270   -0.1480 C   0  0  0  0  0  0  0  0  0  0  0  0
    5.8990   -0.2550    0.4550 H   0  0  0  0  0  0  0  0  0  0  0  0
    5.7740    0.3890   -1.1790 H   0  0  0  0  0  0  0  0  0  0  0  0
   -0.3620   -0.6460   -1.3870 C   0  0  0  0  0  0  0  0  0  0  0  0
   -0.8820    0.1080   -1.9900 H   0  0  0  0  0  0  0  0  0  0  0  0
   -0.6680   -0.4900   -0.3460 H   0  0  0  0  0  0  0  0  0  0  0  0
    1.1450   -0.3920   -1.5080 C   0  0  0  0  0  0  0  0  0  0  0  0
    1.4580   -0.5360   -2.5490 H   0  0  0  0  0  0  0  0  0  0  0  0
    1.3220    0.6620   -1.2680 H   0  0  0  0  0  0  0  0  0  0  0  0
    1.9860   -1.2790   -0.5870 C   0  0  0  0  0  0  0  0  0  0  0  0
    1.6580   -1.1560    0.4520 H   0  0  0  0  0  0  0  0  0  0  0  0
    1.8250   -2.3310   -0.8480 H   0  0  0  0  0  0  0  0  0  0  0  0
    3.4900   -1.0040   -0.6890 C   0  0  0  0  0  0  0  0  0  0  0  0
    4.0180   -1.7950   -0.1410 H   0  0  0  0  0  0  0  0  0  0  0  0
    3.8080   -1.0800   -1.7360 H   0  0  0  0  0  0  0  0  0  0  0  0
    6.2190    3.4700    2.2810 C   0  0  0  0  0  0  0  0  0  0  0  0
    5.7730    4.3050    1.7310 H   0  0  0  0  0  0  0  0  0  0  0  0
    7.3020    3.4950    2.1270 H   0  0  0  0  0  0  0  0  0  0  0  0
    6.0240    3.6230    3.3470 H   0  0  0  0  0  0  0  0  0  0  0  0
  1  2  2  0  0  0  0
  1  6  1  0  0  0  0
  2  3  1  0  0  0  0
  2  4  1  0  0  0  0
  3  7  2  0  0  0  0
  3 24  1  0  0  0  0
  4  5  2  0  0  0  0
  4  9  1  0  0  0  0
  5  8  1  0  0  0  0
  6  8  2  0  0  0  0
  6 12  1  0  0  0  0
  7 11  1  0  0  0  0
  7 18  1  0  0  0  0
  8 14  1  0  0  0  0
  9 10  1  0  0  0  0
  9 11  2  0  0  0  0
 11 22  1  0  0  0  0
 12 13  1  0  0  0  0
 12 16  2  0  0  0  0
 14 15  1  0  0  0  0
 14 17  2  0  0  0  0
 16 17  1  0  0  0  0
 16 20  1  0  0  0  0
 17 21  1  0  0  0  0
 18 19  1  0  0  0  0
 22 23  1  0  0  0  0
 24 25  1  0  0  0  0
 24 26  1  0  0  0  0
 24 27  1  0  0  0  0
 27 28  1  0  0  0  0
 27 29  1  0  0  0  0
 27 42  1  0  0  0  0
 30 31  1  0  0  0  0
 30 32  1  0  0  0  0
 30 33  1  0  0  0  0
 30 54  1  0  0  0  0
 33 34  1  0  0  0  0
 33 35  1  0  0  0  0
 33 39  1  0  0  0  0
 36 37  1  0  0  0  0
 36 38  1  0  0  0  0
 36 39  1  0  0  0  0
 36 51  1  0  0  0  0
 39 40  1  0  0  0  0
 39 41  1  0  0  0  0
 42 43  1  0  0  0  0
 42 44  1  0  0  0  0
 42 45  1  0  0  0  0
 45 46  1  0  0  0  0
 45 47  1  0  0  0  0
 45 48  1  0  0  0  0
 48 49  1  0  0  0  0
 48 50  1  0  0  0  0
 48 51  1  0  0  0  0
 51 52  1  0  0  0  0
 51 53  1  0  0  0  0
 54 55  1  0  0  0  0
 54 56  1  0  0  0  0
 54 57  1  0  0  0  0
M  END
>  <IDNUMBER>
AK-693/43460791

>  <NAME>
Embelin, derivative of

>  <ADD_INFO>
http://www.specs.net/enter.php?specsid=AK-693/43460791

>  <H_ACCEPTORS>
2

>  <H_DONORS>
2

>  <ROTATABLE_BONDS>
10

>  <LOGP>
8.0799999

>  <LOGS>
-9.8000002

>  <TPSA>
66.239998

>  <PRICE>
N07

$$$$
AK-693/43460794
  MOE2011           3D

 74 76  0  0  1  0  0  0  0  0999 V2000
   -1.0710   -3.0490    0.4240 C   0  0  0  0  0  0  0  0  0  0  0  0
   -1.5100   -2.1230    1.3000 N   0  0  0  0  0  0  0  0  0  0  0  0
    0.2920   -3.4170    0.3890 C   0  0  0  0  0  0  0  0  0  0  0  0
   -1.9880   -3.6530   -0.4680 C   0  0  0  0  0  0  0  0  0  0  0  0
   -3.2900   -3.3280   -0.4700 N   0  0  0  0  0  0  0  0  0  0  0  0
   -6.9650   -0.8440    1.4310 C   0  0  0  0  0  0  0  0  0  0  0  0
    0.7060   -4.3750   -0.5420 C   0  0  0  0  0  0  0  0  0  0  0  0
   -3.7120   -2.3940    0.3950 C   0  0  0  0  0  0  0  0  0  0  0  0
   -7.5740   -0.0820    0.4770 N   0  0  0  0  0  0  0  0  0  0  0  0
   -8.5910   -0.0460    0.5070 H   0  0  0  0  0  0  0  0  0  0  0  0
   -1.5500   -4.6070   -1.3680 C   0  0  0  0  0  0  0  0  0  0  0  0
   -2.2550   -5.0700   -2.0520 H   0  0  0  0  0  0  0  0  0  0  0  0
   -0.2150   -4.9630   -1.4010 C   0  0  0  0  0  0  0  0  0  0  0  0
   -2.8140   -1.7830    1.2910 C   0  0  0  0  0  0  0  0  0  0  0  0
   -5.5200   -1.0900    1.3310 C   0  0  0  0  0  0  0  0  0  0  0  0
   -7.9260    0.6940   -1.8710 C   0  0  0  0  0  0  0  0  0  0  0  0
   -5.0550   -2.0420    0.4220 C   0  0  0  0  0  0  0  0  0  0  0  0
   -5.7490   -2.5300   -0.2580 H   0  0  0  0  0  0  0  0  0  0  0  0
   -6.9990    0.7360   -0.6190 C   0  0  3  0  0  0  0  0  0  0  0  0
   -5.8680    4.4500   -0.3950 C   0  0  0  0  0  0  0  0  0  0  0  0
   -7.5790   -1.3680    2.3560 O   0  0  0  0  0  0  0  0  0  0  0  0
   -9.1670    0.6580   -1.6090 O   0  0  0  0  0  0  0  0  0  0  0  0
   -4.6460   -0.4800    2.2230 C   0  0  0  0  0  0  0  0  0  0  0  0
   -5.0070    0.2470    2.9450 H   0  0  0  0  0  0  0  0  0  0  0  0
   -3.2950   -0.8280    2.1850 C   0  0  0  0  0  0  0  0  0  0  0  0
   -2.6020   -0.3550    2.8780 H   0  0  0  0  0  0  0  0  0  0  0  0
   -6.6520    5.3990   -0.6800 O   0  0  0  0  0  0  0  0  0  0  0  0
   -6.8630    2.1850   -0.1200 C   0  0  0  0  0  0  0  0  0  0  0  0
   -7.8560    2.5960    0.1100 H   0  0  0  0  0  0  0  0  0  0  0  0
   -6.3200    2.1770    0.8350 H   0  0  0  0  0  0  0  0  0  0  0  0
   -6.1540    3.1190   -1.0980 C   0  0  0  0  0  0  0  0  0  0  0  0
   -6.7660    3.2930   -1.9890 H   0  0  0  0  0  0  0  0  0  0  0  0
   -5.2040    2.6830   -1.4290 H   0  0  0  0  0  0  0  0  0  0  0  0
    1.9970   -4.8030   -0.7000 O   0  0  0  0  0  0  0  0  0  0  0  0
    2.5980   -4.2430   -0.1820 H   0  0  0  0  0  0  0  0  0  0  0  0
    0.2080   -5.9010   -2.2990 O   0  0  0  0  0  0  0  0  0  0  0  0
    1.1690   -5.9780   -2.1280 H   0  0  0  0  0  0  0  0  0  0  0  0
   -7.3340    0.6460   -2.9870 O   0  5  0  0  0  0  0  0  0  0  0  0
   -4.8670    4.4360    0.3790 O   0  5  0  0  0  0  0  0  0  0  0  0
    1.2530   -2.7540    1.3550 C   0  0  0  0  0  0  0  0  0  0  0  0
    0.7690   -2.6890    2.3390 H   0  0  0  0  0  0  0  0  0  0  0  0
    2.1300   -3.3860    1.5350 H   0  0  0  0  0  0  0  0  0  0  0  0
    1.6960   -1.3470    0.9310 C   0  0  0  0  0  0  0  0  0  0  0  0
    0.8220   -0.7130    0.7370 H   0  0  0  0  0  0  0  0  0  0  0  0
    2.2270   -0.9010    1.7800 H   0  0  0  0  0  0  0  0  0  0  0  0
    7.9480    3.1360   -0.5790 C   0  0  0  0  0  0  0  0  0  0  0  0
    7.1350    3.5630   -1.1750 H   0  0  0  0  0  0  0  0  0  0  0  0
    8.3270    3.9300    0.0760 H   0  0  0  0  0  0  0  0  0  0  0  0
    7.4340    1.9690    0.2650 C   0  0  0  0  0  0  0  0  0  0  0  0
    8.2780    1.5160    0.8000 H   0  0  0  0  0  0  0  0  0  0  0  0
    7.0300    1.1870   -0.3880 H   0  0  0  0  0  0  0  0  0  0  0  0
    3.8760    0.8170    0.2710 C   0  0  0  0  0  0  0  0  0  0  0  0
    3.3050    0.9910    1.1900 H   0  0  0  0  0  0  0  0  0  0  0  0
    4.7400    0.1970    0.5330 H   0  0  0  0  0  0  0  0  0  0  0  0
    4.3450    2.1640   -0.2850 C   0  0  0  0  0  0  0  0  0  0  0  0
    4.9630    2.0040   -1.1760 H   0  0  0  0  0  0  0  0  0  0  0  0
    3.4710    2.7380   -0.6160 H   0  0  0  0  0  0  0  0  0  0  0  0
    6.3860    2.3840    1.3010 C   0  0  0  0  0  0  0  0  0  0  0  0
    6.8420    3.0990    1.9980 H   0  0  0  0  0  0  0  0  0  0  0  0
    6.1250    1.5060    1.9040 H   0  0  0  0  0  0  0  0  0  0  0  0
    2.6140   -1.3400   -0.2950 C   0  0  0  0  0  0  0  0  0  0  0  0
    3.5160   -1.9280   -0.0850 H   0  0  0  0  0  0  0  0  0  0  0  0
    2.1070   -1.8250   -1.1370 H   0  0  0  0  0  0  0  0  0  0  0  0
    3.0130    0.0680   -0.7480 C   0  0  0  0  0  0  0  0  0  0  0  0
    3.5690   -0.0210   -1.6900 H   0  0  0  0  0  0  0  0  0  0  0  0
    2.1110    0.6520   -0.9690 H   0  0  0  0  0  0  0  0  0  0  0  0
    5.1060    3.0110    0.7390 C   0  0  0  0  0  0  0  0  0  0  0  0
    5.3460    3.9790    0.2820 H   0  0  0  0  0  0  0  0  0  0  0  0
    4.4370    3.2350    1.5790 H   0  0  0  0  0  0  0  0  0  0  0  0
    9.0590    2.6940   -1.5190 C   0  0  0  0  0  0  0  0  0  0  0  0
    8.7050    1.9190   -2.2060 H   0  0  0  0  0  0  0  0  0  0  0  0
    9.9120    2.2960   -0.9600 H   0  0  0  0  0  0  0  0  0  0  0  0
    9.4100    3.5420   -2.1160 H   0  0  0  0  0  0  0  0  0  0  0  0
   -6.0140    0.3360   -0.8800 H   0  0  0  0  0  0  0  0  0  0  0  0
  1  2  1  0  0  0  0
  1  3  2  0  0  0  0
  1  4  1  0  0  0  0
  2 14  2  0  0  0  0
  3  7  1  0  0  0  0
  3 40  1  0  0  0  0
  4  5  1  0  0  0  0
  4 11  2  0  0  0  0
  5  8  2  0  0  0  0
  6  9  1  0  0  0  0
  6 15  1  0  0  0  0
  6 21  2  0  0  0  0
  7 13  2  0  0  0  0
  7 34  1  0  0  0  0
  8 14  1  0  0  0  0
  8 17  1  0  0  0  0
  9 10  1  0  0  0  0
  9 19  1  0  0  0  0
 11 12  1  0  0  0  0
 11 13  1  0  0  0  0
 13 36  1  0  0  0  0
 14 25  1  0  0  0  0
 15 17  2  0  0  0  0
 15 23  1  0  0  0  0
 16 19  1  0  0  0  0
 16 22  2  0  0  0  0
 16 38  1  0  0  0  0
 17 18  1  0  0  0  0
 19 28  1  0  0  0  0
 19 74  1  0  0  0  0
 20 27  2  0  0  0  0
 20 31  1  0  0  0  0
 20 39  1  0  0  0  0
 23 24  1  0  0  0  0
 23 25  2  0  0  0  0
 25 26  1  0  0  0  0
 28 29  1  0  0  0  0
 28 30  1  0  0  0  0
 28 31  1  0  0  0  0
 31 32  1  0  0  0  0
 31 33  1  0  0  0  0
 34 35  1  0  0  0  0
 36 37  1  0  0  0  0
 40 41  1  0  0  0  0
 40 42  1  0  0  0  0
 40 43  1  0  0  0  0
 43 44  1  0  0  0  0
 43 45  1  0  0  0  0
 43 61  1  0  0  0  0
 46 47  1  0  0  0  0
 46 48  1  0  0  0  0
 46 49  1  0  0  0  0
 46 70  1  0  0  0  0
 49 50  1  0  0  0  0
 49 51  1  0  0  0  0
 49 58  1  0  0  0  0
 52 53  1  0  0  0  0
 52 54  1  0  0  0  0
 52 55  1  0  0  0  0
 52 64  1  0  0  0  0
 55 56  1  0  0  0  0
 55 57  1  0  0  0  0
 55 67  1  0  0  0  0
 58 59  1  0  0  0  0
 58 60  1  0  0  0  0
 58 67  1  0  0  0  0
 61 62  1  0  0  0  0
 61 63  1  0  0  0  0
 61 64  1  0  0  0  0
 64 65  1  0  0  0  0
 64 66  1  0  0  0  0
 67 68  1  0  0  0  0
 67 69  1  0  0  0  0
 70 71  1  0  0  0  0
 70 72  1  0  0  0  0
 70 73  1  0  0  0  0
M  CHG  1  38  -1
M  CHG  1  39  -1
M  END
>  <IDNUMBER>
AK-693/43460794

>  <NAME>
Embelin, derivative of

>  <ADD_INFO>
http://www.specs.net/enter.php?specsid=AK-693/43460794

>  <H_ACCEPTORS>
8

>  <H_DONORS>
5

>  <ROTATABLE_BONDS>
17

>  <LOGP>
4.8299999

>  <LOGS>
-7.79

>  <TPSA>
169.94

>  <PRICE>
N07

$$$$
AK-693/43460795
  MOE2011           3D

 83 89  0  0  1  0  0  0  0  0999 V2000
   -0.2330   -0.5140   -0.4350 C   0  0  2  0  0  0  0  0  0  0  0  0
   -2.7750   -0.2970   -0.3790 C   0  0  2  0  0  0  0  0  0  0  0  0
   -1.5360    0.2340   -1.2820 C   0  0  3  0  0  0  0  0  0  0  0  0
   -1.1240   -1.0930   -1.2900 C   0  0  2  0  0  0  0  0  0  0  0  0
   -1.6450   -2.3620   -0.3440 N   0  3  3  0  0  0  0  0  0  0  0  0
   -0.8430   -2.9080    0.0500 H   0  0  0  0  0  0  0  0  0  0  0  0
   -1.7940    2.6470    0.3640 C   0  0  1  0  0  0  0  0  0  0  0  0
   -1.8220    0.6610   -0.0850 C   0  0  3  0  0  0  0  0  0  0  0  0
   -2.7750    1.7890    1.6080 C   0  0  0  0  0  0  0  0  0  0  0  0
    0.0090   -1.9330   -1.6570 C   0  0  2  0  0  0  0  0  0  0  0  0
   -0.6490    1.9460   -0.8600 C   0  0  0  0  0  0  0  0  0  0  0  0
   -1.8510   -2.5510   -1.7290 C   0  0  2  0  0  0  0  0  0  0  0  0
   -3.2160    0.0430    1.2090 C   0  0  1  0  0  0  0  0  0  0  0  0
    1.1070   -0.4170    0.2430 C   0  0  1  0  0  0  0  0  0  0  0  0
   -2.7230    2.0710   -0.5910 C   0  0  2  0  0  0  0  0  0  0  0  0
    1.2060   -2.8850   -1.3360 C   0  0  1  0  0  0  0  0  0  0  0  0
   -3.3340   -1.2940   -1.6320 C   0  0  0  0  0  0  0  0  0  0  0  0
   -3.4750   -0.8100   -2.6040 H   0  0  0  0  0  0  0  0  0  0  0  0
   -4.2310   -1.8540   -1.3580 H   0  0  0  0  0  0  0  0  0  0  0  0
    2.2870   -0.5690   -0.7350 C   0  0  1  0  0  0  0  0  0  0  0  0
    4.5080    0.2780   -0.8450 C   0  0  0  0  0  0  0  0  0  0  0  0
    3.5040   -0.1860   -0.0610 O   0  0  0  0  0  0  0  0  0  0  0  0
    2.4830   -2.0110   -1.2720 C   0  0  0  0  0  0  0  0  0  0  0  0
    2.9140   -1.9200   -2.2780 H   0  0  0  0  0  0  0  0  0  0  0  0
    3.2610   -2.5170   -0.6840 H   0  0  0  0  0  0  0  0  0  0  0  0
   -4.6410   -0.1060    1.2850 O   0  0  0  0  0  0  0  0  0  0  0  0
    1.1590    0.8500    0.9320 O   0  0  0  0  0  0  0  0  0  0  0  0
   -2.6700    2.5720   -1.9310 O   0  0  0  0  0  0  0  0  0  0  0  0
   -3.3530    3.7330   -2.1530 C   0  0  0  0  0  0  0  0  0  0  0  0
    1.8060    0.8950    2.1300 C   0  0  0  0  0  0  0  0  0  0  0  0
   -5.2990   -0.6560    2.3300 C   0  0  0  0  0  0  0  0  0  0  0  0
    0.3800    2.3900   -1.3260 O   0  0  0  0  0  0  0  0  0  0  0  0
   -3.2100    2.4310    2.7000 C   0  0  0  0  0  0  0  0  0  0  0  0
   -3.8430    1.9510    3.4360 H   0  0  0  0  0  0  0  0  0  0  0  0
   -2.9590    3.4740    2.8710 H   0  0  0  0  0  0  0  0  0  0  0  0
    1.1490   -3.6910   -0.0500 C   0  0  0  0  0  0  0  0  0  0  0  0
    2.0360   -4.2970    0.2080 H   0  0  0  0  0  0  0  0  0  0  0  0
    4.4920    0.3430   -2.0640 O   0  0  0  0  0  0  0  0  0  0  0  0
    5.6480    0.7310   -0.0100 C   0  0  0  0  0  0  0  0  0  0  0  0
   -3.9940    4.3550   -1.3190 O   0  0  0  0  0  0  0  0  0  0  0  0
   -6.5140   -0.8230    2.2850 O   0  0  0  0  0  0  0  0  0  0  0  0
    2.3260   -0.0510    2.7040 O   0  0  0  0  0  0  0  0  0  0  0  0
    0.1450   -3.6870    0.6580 O   0  0  0  0  0  0  0  0  0  0  0  0
   -2.7100   -2.8940    0.5540 C   0  0  0  0  0  0  0  0  0  0  0  0
   -3.6990   -2.4680    0.4220 H   0  0  0  0  0  0  0  0  0  0  0  0
   -2.3680   -2.7360    1.5800 H   0  0  0  0  0  0  0  0  0  0  0  0
   -2.7670   -3.9740    0.3820 H   0  0  0  0  0  0  0  0  0  0  0  0
    1.3300   -3.9350   -2.4530 C   0  0  0  0  0  0  0  0  0  0  0  0
    1.4390   -3.4650   -3.4370 H   0  0  0  0  0  0  0  0  0  0  0  0
    0.4430   -4.5790   -2.4850 H   0  0  0  0  0  0  0  0  0  0  0  0
    2.2000   -4.5840   -2.2980 H   0  0  0  0  0  0  0  0  0  0  0  0
   -4.4970   -1.0970    3.5180 C   0  0  0  0  0  0  0  0  0  0  0  0
   -3.8530   -0.2980    3.8850 H   0  0  0  0  0  0  0  0  0  0  0  0
   -3.9180   -1.9890    3.2720 H   0  0  0  0  0  0  0  0  0  0  0  0
   -5.1840   -1.3530    4.3310 H   0  0  0  0  0  0  0  0  0  0  0  0
   -3.2010    4.1420   -3.5860 C   0  0  0  0  0  0  0  0  0  0  0  0
   -3.6160    3.3700   -4.2380 H   0  0  0  0  0  0  0  0  0  0  0  0
   -2.1450    4.3120   -3.8120 H   0  0  0  0  0  0  0  0  0  0  0  0
   -3.7480    5.0740   -3.7570 H   0  0  0  0  0  0  0  0  0  0  0  0
    1.7840    2.2970    2.6590 C   0  0  0  0  0  0  0  0  0  0  0  0
    2.2910    2.9640    1.9580 H   0  0  0  0  0  0  0  0  0  0  0  0
    2.3130    2.3310    3.6160 H   0  0  0  0  0  0  0  0  0  0  0  0
    0.7520    2.6170    2.8180 H   0  0  0  0  0  0  0  0  0  0  0  0
    5.7000    0.5050    1.3730 C   0  0  0  0  0  0  0  0  0  0  0  0
    4.9030   -0.0260    1.8890 H   0  0  0  0  0  0  0  0  0  0  0  0
    6.6980    1.4100   -0.6410 C   0  0  0  0  0  0  0  0  0  0  0  0
    6.6730    1.5910   -1.7130 H   0  0  0  0  0  0  0  0  0  0  0  0
    7.7850    1.8670    0.1050 C   0  0  0  0  0  0  0  0  0  0  0  0
    8.5980    2.3960   -0.3860 H   0  0  0  0  0  0  0  0  0  0  0  0
    6.7910    0.9620    2.1140 C   0  0  0  0  0  0  0  0  0  0  0  0
    6.8330    0.7860    3.1860 H   0  0  0  0  0  0  0  0  0  0  0  0
    7.8300    1.6440    1.4800 C   0  0  0  0  0  0  0  0  0  0  0  0
    8.6770    2.0010    2.0600 H   0  0  0  0  0  0  0  0  0  0  0  0
    0.3290   -1.5400   -2.6720 H   0  0  0  0  0  0  0  0  0  0  0  0
   -2.0400   -3.5920   -2.0010 H   0  0  0  0  0  0  0  0  0  0  0  0
   -1.8180    3.7360    0.4000 H   0  0  0  0  0  0  0  0  0  0  0  0
   -1.2930   -1.0140   -2.5090 H   0  0  0  0  0  0  0  0  0  0  0  0
   -1.9140    0.5560   -2.2980 H   0  0  0  0  0  0  0  0  0  0  0  0
   -1.3260    0.6720    0.9460 H   0  0  0  0  0  0  0  0  0  0  0  0
   -2.6680   -0.5820    1.9240 H   0  0  0  0  0  0  0  0  0  0  0  0
    1.1560   -1.2030    1.0050 H   0  0  0  0  0  0  0  0  0  0  0  0
   -3.7890    2.0080   -0.3220 H   0  0  0  0  0  0  0  0  0  0  0  0
    2.1150    0.1220   -1.5710 H   0  0  0  0  0  0  0  0  0  0  0  0
  1  4  1  0  0  0  0
  1  8  1  0  0  0  0
  1 10  1  0  0  0  0
  1 14  1  0  0  0  0
  2  3  1  0  0  0  0
  2  8  1  0  0  0  0
  2 13  1  0  0  0  0
  2 17  1  0  0  0  0
  3  4  1  0  0  0  0
  3 11  1  0  0  0  0
  3 78  1  0  0  0  0
  4  5  1  0  0  0  0
  4 77  1  0  0  0  0
  5  6  1  0  0  0  0
  5 12  1  0  0  0  0
  5 44  1  0  0  0  0
  7  9  1  0  0  0  0
  7 11  1  0  0  0  0
  7 15  1  0  0  0  0
  7 76  1  0  0  0  0
  8 15  1  0  0  0  0
  8 79  1  0  0  0  0
  9 13  1  0  0  0  0
  9 33  2  0  0  0  0
 10 12  1  0  0  0  0
 10 16  1  0  0  0  0
 10 74  1  0  0  0  0
 11 32  2  0  0  0  0
 12 17  1  0  0  0  0
 12 75  1  0  0  0  0
 13 26  1  0  0  0  0
 13 80  1  0  0  0  0
 14 20  1  0  0  0  0
 14 27  1  0  0  0  0
 14 81  1  0  0  0  0
 15 28  1  0  0  0  0
 15 82  1  0  0  0  0
 16 23  1  0  0  0  0
 16 36  1  0  0  0  0
 16 48  1  0  0  0  0
 17 18  1  0  0  0  0
 17 19  1  0  0  0  0
 20 22  1  0  0  0  0
 20 23  1  0  0  0  0
 20 83  1  0  0  0  0
 21 22  1  0  0  0  0
 21 38  2  0  0  0  0
 21 39  1  0  0  0  0
 23 24  1  0  0  0  0
 23 25  1  0  0  0  0
 26 31  1  0  0  0  0
 27 30  1  0  0  0  0
 28 29  1  0  0  0  0
 29 40  2  0  0  0  0
 29 56  1  0  0  0  0
 30 42  2  0  0  0  0
 30 60  1  0  0  0  0
 31 41  2  0  0  0  0
 31 52  1  0  0  0  0
 33 34  1  0  0  0  0
 33 35  1  0  0  0  0
 36 37  1  0  0  0  0
 36 43  2  0  0  0  0
 39 64  2  0  0  0  0
 39 66  1  0  0  0  0
 44 45  1  0  0  0  0
 44 46  1  0  0  0  0
 44 47  1  0  0  0  0
 48 49  1  0  0  0  0
 48 50  1  0  0  0  0
 48 51  1  0  0  0  0
 52 53  1  0  0  0  0
 52 54  1  0  0  0  0
 52 55  1  0  0  0  0
 56 57  1  0  0  0  0
 56 58  1  0  0  0  0
 56 59  1  0  0  0  0
 60 61  1  0  0  0  0
 60 62  1  0  0  0  0
 60 63  1  0  0  0  0
 64 65  1  0  0  0  0
 64 70  1  0  0  0  0
 66 67  1  0  0  0  0
 66 68  2  0  0  0  0
 68 69  1  0  0  0  0
 68 72  1  0  0  0  0
 70 71  1  0  0  0  0
 70 72  2  0  0  0  0
 72 73  1  0  0  0  0
M  CHG  1   5   1
M  END
>  <IDNUMBER>
AK-693/43460795

>  <NAME>
Vakognavine

>  <ADD_INFO>
http://www.specs.net/enter.php?specsid=AK-693/43460795

>  <H_ACCEPTORS>
11

>  <H_DONORS>
0

>  <ROTATABLE_BONDS>
10

>  <LOGP>
2.47

>  <LOGS>
-4.8200002

>  <TPSA>
142.58

>  <PRICE>
N07

$$$$
AK-693/43460796
  MOE2011           3D

 88 95  0  0  1  0  0  0  0  0999 V2000
   -2.7400   -1.7970   -0.4600 C   0  0  2  0  0  0  0  0  0  0  0  0
   -0.8500    0.5630   -0.8620 C   0  0  2  0  0  0  0  0  0  0  0  0
   -2.5390   -1.4790    1.1360 C   0  0  1  0  0  0  0  0  0  0  0  0
   -1.0690    0.9600    0.7300 C   0  0  3  0  0  0  0  0  0  0  0  0
   -1.4470   -0.4930    0.8390 C   0  0  1  0  0  0  0  0  0  0  0  0
   -2.2040   -0.4940   -1.4560 C   0  0  3  0  0  0  0  0  0  0  0  0
    0.3540   -0.3730   -0.6710 C   0  0  1  0  0  0  0  0  0  0  0  0
    1.6380    0.4190   -0.3990 C   0  0  2  0  0  0  0  0  0  0  0  0
    0.1410    1.3940    1.5130 N   0  3  3  0  0  0  0  0  0  0  0  0
    0.1220    0.7920    2.3480 H   0  0  0  0  0  0  0  0  0  0  0  0
   -4.2090   -1.9230   -0.8950 C   0  0  2  0  0  0  0  0  0  0  0  0
   -4.6360   -0.4660   -0.7490 C   0  0  2  0  0  0  0  0  0  0  0  0
    3.9710   -0.2510   -0.0600 C   0  0  0  0  0  0  0  0  0  0  0  0
   -3.8430   -0.9260    1.7320 C   0  0  0  0  0  0  0  0  0  0  0  0
   -4.4650   -1.7540    2.0960 H   0  0  0  0  0  0  0  0  0  0  0  0
   -3.6180   -0.3530    2.6420 H   0  0  0  0  0  0  0  0  0  0  0  0
    4.8820   -1.4290   -0.1750 C   0  0  0  0  0  0  0  0  0  0  0  0
   -0.1000   -1.1680    0.5640 C   0  0  0  0  0  0  0  0  0  0  0  0
    0.5760   -1.1280    1.4250 H   0  0  0  0  0  0  0  0  0  0  0  0
   -0.1110   -2.2200    0.2870 H   0  0  0  0  0  0  0  0  0  0  0  0
   -3.5510    0.2900   -1.5810 C   0  0  0  0  0  0  0  0  0  0  0  0
   -3.4900    1.3280   -1.2570 H   0  0  0  0  0  0  0  0  0  0  0  0
   -3.8460    0.2970   -2.6370 H   0  0  0  0  0  0  0  0  0  0  0  0
    2.6930   -0.5900   -0.3610 O   0  0  0  0  0  0  0  0  0  0  0  0
    1.5520    1.2070    0.9330 C   0  0  0  0  0  0  0  0  0  0  0  0
    1.9990    2.2010    0.8170 H   0  0  0  0  0  0  0  0  0  0  0  0
    2.1110    0.7000    1.7280 H   0  0  0  0  0  0  0  0  0  0  0  0
   -4.6730   -0.0280    0.7590 C   0  0  2  0  0  0  0  0  0  0  0  0
    6.2840   -1.2720   -0.0350 C   0  0  0  0  0  0  0  0  0  0  0  0
   -2.0380   -3.0120   -0.6600 O   0  0  0  0  0  0  0  0  0  0  0  0
   -2.1300   -2.7160    1.6920 O   0  0  0  0  0  0  0  0  0  0  0  0
    6.8280    0.0160    0.2210 N   0  0  0  0  0  0  0  0  0  0  0  0
    6.1290    0.7600    0.3180 H   0  0  0  0  0  0  0  0  0  0  0  0
   -0.6380    1.7320   -1.8340 C   0  0  2  0  0  0  0  0  0  0  0  0
    8.1630    0.3730    0.3500 C   0  0  0  0  0  0  0  0  0  0  0  0
    1.8700    1.3530   -1.6010 C   0  0  0  0  0  0  0  0  0  0  0  0
    2.8240    1.8850   -1.5050 H   0  0  0  0  0  0  0  0  0  0  0  0
    1.9660    0.7560   -2.5190 H   0  0  0  0  0  0  0  0  0  0  0  0
   -2.1170   -3.6720    0.6160 C   0  0  0  0  0  0  0  0  0  0  0  0
   -3.0220   -4.2860    0.6660 H   0  0  0  0  0  0  0  0  0  0  0  0
   -1.2510   -4.3310    0.7340 H   0  0  0  0  0  0  0  0  0  0  0  0
    4.3490    0.8650    0.2640 O   0  0  0  0  0  0  0  0  0  0  0  0
    9.1450   -0.3550    0.2540 O   0  0  0  0  0  0  0  0  0  0  0  0
    0.7510    2.3710   -1.7600 C   0  0  0  0  0  0  0  0  0  0  0  0
    0.9330    2.9540   -2.6720 H   0  0  0  0  0  0  0  0  0  0  0  0
    0.7840    3.1070   -0.9490 H   0  0  0  0  0  0  0  0  0  0  0  0
   -4.9420   -2.8380   -0.0970 O   0  0  0  0  0  0  0  0  0  0  0  0
   -0.0560    2.7950    2.0920 C   0  0  0  0  0  0  0  0  0  0  0  0
    0.0860    3.5170    1.2830 H   0  0  0  0  0  0  0  0  0  0  0  0
   -1.0870    2.8550    2.4580 H   0  0  0  0  0  0  0  0  0  0  0  0
   -6.0230   -0.0500    1.2500 O   0  0  0  0  0  0  0  0  0  0  0  0
    4.3420   -2.7050   -0.4250 C   0  0  0  0  0  0  0  0  0  0  0  0
    3.2710   -2.8570   -0.5340 H   0  0  0  0  0  0  0  0  0  0  0  0
   -1.6260    2.7250   -1.5440 O   0  0  0  0  0  0  0  0  0  0  0  0
    7.0980   -2.4050   -0.1560 C   0  0  0  0  0  0  0  0  0  0  0  0
    8.1770   -2.3460   -0.0560 H   0  0  0  0  0  0  0  0  0  0  0  0
    8.3160    1.8470    0.6300 C   0  0  0  0  0  0  0  0  0  0  0  0
    7.7610    2.1150    1.5340 H   0  0  0  0  0  0  0  0  0  0  0  0
    7.9350    2.4250   -0.2170 H   0  0  0  0  0  0  0  0  0  0  0  0
    9.3720    2.0880    0.7790 H   0  0  0  0  0  0  0  0  0  0  0  0
   -6.2540   -3.0880   -0.5840 C   0  0  0  0  0  0  0  0  0  0  0  0
   -6.7200   -3.8390    0.0600 H   0  0  0  0  0  0  0  0  0  0  0  0
   -6.2160   -3.4820   -1.6040 H   0  0  0  0  0  0  0  0  0  0  0  0
   -6.8630   -2.1810   -0.5520 H   0  0  0  0  0  0  0  0  0  0  0  0
   -6.7620    1.1230    0.9310 C   0  0  0  0  0  0  0  0  0  0  0  0
   -7.7790    1.0000    1.3140 H   0  0  0  0  0  0  0  0  0  0  0  0
   -6.8150    1.2800   -0.1490 H   0  0  0  0  0  0  0  0  0  0  0  0
   -6.3140    1.9950    1.4150 H   0  0  0  0  0  0  0  0  0  0  0  0
   -1.8870    3.6070   -2.6310 C   0  0  0  0  0  0  0  0  0  0  0  0
   -2.6950    4.2810   -2.3330 H   0  0  0  0  0  0  0  0  0  0  0  0
   -2.2110    3.0460   -3.5120 H   0  0  0  0  0  0  0  0  0  0  0  0
   -1.0060    4.2100   -2.8660 H   0  0  0  0  0  0  0  0  0  0  0  0
    0.8870    3.0360    3.2590 C   0  0  0  0  0  0  0  0  0  0  0  0
    1.9360    3.0420    2.9480 H   0  0  0  0  0  0  0  0  0  0  0  0
    0.7630    2.2700    4.0320 H   0  0  0  0  0  0  0  0  0  0  0  0
    0.6740    4.0090    3.7140 H   0  0  0  0  0  0  0  0  0  0  0  0
    5.1740   -3.8170   -0.5390 C   0  0  0  0  0  0  0  0  0  0  0  0
    4.7540   -4.8000   -0.7330 H   0  0  0  0  0  0  0  0  0  0  0  0
    6.5490   -3.6650   -0.4050 C   0  0  0  0  0  0  0  0  0  0  0  0
    7.2020   -4.5300   -0.4940 H   0  0  0  0  0  0  0  0  0  0  0  0
   -2.2910   -0.0020    0.3920 H   0  0  0  0  0  0  0  0  0  0  0  0
    0.4850   -1.0440   -1.5300 H   0  0  0  0  0  0  0  0  0  0  0  0
   -5.6170   -0.3020   -1.2070 H   0  0  0  0  0  0  0  0  0  0  0  0
   -1.8780    1.6930    0.8750 H   0  0  0  0  0  0  0  0  0  0  0  0
   -1.8820   -0.9030   -2.4220 H   0  0  0  0  0  0  0  0  0  0  0  0
   -4.2470   -2.2590   -1.9400 H   0  0  0  0  0  0  0  0  0  0  0  0
   -4.2990    1.0000    0.8520 H   0  0  0  0  0  0  0  0  0  0  0  0
   -0.7880    1.3480   -2.8520 H   0  0  0  0  0  0  0  0  0  0  0  0
  1  3  1  0  0  0  0
  1  6  1  0  0  0  0
  1 11  1  0  0  0  0
  1 30  1  0  0  0  0
  2  4  1  0  0  0  0
  2  6  1  0  0  0  0
  2  7  1  0  0  0  0
  2 34  1  0  0  0  0
  3  5  1  0  0  0  0
  3 14  1  0  0  0  0
  3 31  1  0  0  0  0
  4  5  1  0  0  0  0
  4  9  1  0  0  0  0
  4 84  1  0  0  0  0
  5 18  1  0  0  0  0
  5 81  1  0  0  0  0
  6 21  1  0  0  0  0
  6 85  1  0  0  0  0
  7  8  1  0  0  0  0
  7 18  1  0  0  0  0
  7 82  1  0  0  0  0
  8 24  1  0  0  0  0
  8 25  1  0  0  0  0
  8 36  1  0  0  0  0
  9 10  1  0  0  0  0
  9 25  1  0  0  0  0
  9 48  1  0  0  0  0
 11 12  1  0  0  0  0
 11 47  1  0  0  0  0
 11 86  1  0  0  0  0
 12 21  1  0  0  0  0
 12 28  1  0  0  0  0
 12 83  1  0  0  0  0
 13 17  1  0  0  0  0
 13 24  1  0  0  0  0
 13 42  2  0  0  0  0
 14 15  1  0  0  0  0
 14 16  1  0  0  0  0
 14 28  1  0  0  0  0
 17 29  2  0  0  0  0
 17 52  1  0  0  0  0
 18 19  1  0  0  0  0
 18 20  1  0  0  0  0
 21 22  1  0  0  0  0
 21 23  1  0  0  0  0
 25 26  1  0  0  0  0
 25 27  1  0  0  0  0
 28 51  1  0  0  0  0
 28 87  1  0  0  0  0
 29 32  1  0  0  0  0
 29 55  1  0  0  0  0
 30 39  1  0  0  0  0
 31 39  1  0  0  0  0
 32 33  1  0  0  0  0
 32 35  1  0  0  0  0
 34 44  1  0  0  0  0
 34 54  1  0  0  0  0
 34 88  1  0  0  0  0
 35 43  2  0  0  0  0
 35 57  1  0  0  0  0
 36 37  1  0  0  0  0
 36 38  1  0  0  0  0
 36 44  1  0  0  0  0
 39 40  1  0  0  0  0
 39 41  1  0  0  0  0
 44 45  1  0  0  0  0
 44 46  1  0  0  0  0
 47 61  1  0  0  0  0
 48 49  1  0  0  0  0
 48 50  1  0  0  0  0
 48 73  1  0  0  0  0
 51 65  1  0  0  0  0
 52 53  1  0  0  0  0
 52 77  2  0  0  0  0
 54 69  1  0  0  0  0
 55 56  1  0  0  0  0
 55 79  2  0  0  0  0
 57 58  1  0  0  0  0
 57 59  1  0  0  0  0
 57 60  1  0  0  0  0
 61 62  1  0  0  0  0
 61 63  1  0  0  0  0
 61 64  1  0  0  0  0
 65 66  1  0  0  0  0
 65 67  1  0  0  0  0
 65 68  1  0  0  0  0
 69 70  1  0  0  0  0
 69 71  1  0  0  0  0
 69 72  1  0  0  0  0
 73 74  1  0  0  0  0
 73 75  1  0  0  0  0
 73 76  1  0  0  0  0
 77 78  1  0  0  0  0
 77 79  1  0  0  0  0
 79 80  1  0  0  0  0
M  CHG  1   9   1
M  END
>  <IDNUMBER>
AK-693/43460796

>  <NAME>
Lappaconitine, derivative of

>  <ADD_INFO>
http://www.specs.net/enter.php?specsid=AK-693/43460796

>  <H_ACCEPTORS>
10

>  <H_DONORS>
1

>  <ROTATABLE_BONDS>
9

>  <LOGP>
2.28

>  <LOGS>
-5.4899998

>  <TPSA>
104.79

>  <PRICE>
N07

$$$$
AK-693/43460797
  MOE2011           3D

 86 91  0  0  1  0  0  0  0  0999 V2000
    1.2380    0.2330   -0.5010 C   0  0  1  0  0  0  0  0  0  0  0  0
   -1.8070   -0.8760    0.2750 C   0  0  2  0  0  0  0  0  0  0  0  0
   -0.2790   -1.4020    0.9910 C   0  0  2  0  0  0  0  0  0  0  0  0
    0.1090   -0.5400   -0.0910 C   0  0  3  0  0  0  0  0  0  0  0  0
   -1.7850    0.1490   -1.1280 C   0  0  3  0  0  0  0  0  0  0  0  0
    1.9300   -1.3780   -0.1410 C   0  0  1  0  0  0  0  0  0  0  0  0
   -0.2740    1.0020   -1.3140 C   0  0  3  0  0  0  0  0  0  0  0  0
    3.0560   -0.9430   -0.9140 C   0  0  2  0  0  0  0  0  0  0  0  0
    0.2210   -1.3780   -1.6540 N   0  3  3  0  0  0  0  0  0  0  0  0
   -0.2610   -0.8370   -2.3740 H   0  0  0  0  0  0  0  0  0  0  0  0
   -2.7870    1.3050   -1.0940 C   0  0  2  0  0  0  0  0  0  0  0  0
    1.2430   -1.6280    1.2000 C   0  0  1  0  0  0  0  0  0  0  0  0
   -2.1290    2.1870   -0.0400 C   0  0  2  0  0  0  0  0  0  0  0  0
   -2.5250    0.0020    1.3740 C   0  0  0  0  0  0  0  0  0  0  0  0
   -3.6130   -0.1340    1.3080 H   0  0  0  0  0  0  0  0  0  0  0  0
   -2.2920   -0.3830    2.3760 H   0  0  0  0  0  0  0  0  0  0  0  0
    2.2380    1.3850   -0.9600 C   0  0  1  0  0  0  0  0  0  0  0  0
   -0.6800    2.3510   -0.5990 C   0  0  0  0  0  0  0  0  0  0  0  0
   -0.6760    3.1490   -1.3530 H   0  0  0  0  0  0  0  0  0  0  0  0
    0.0200    2.6460    0.1880 H   0  0  0  0  0  0  0  0  0  0  0  0
    1.8260   -1.1360   -2.2550 C   0  0  0  0  0  0  0  0  0  0  0  0
    2.0070   -2.0820   -2.7860 H   0  0  0  0  0  0  0  0  0  0  0  0
    1.6690   -0.3100   -2.9560 H   0  0  0  0  0  0  0  0  0  0  0  0
   -2.1840    1.5190    1.3700 C   0  0  2  0  0  0  0  0  0  0  0  0
   -2.6520   -2.0130   -0.0720 O   0  0  0  0  0  0  0  0  0  0  0  0
   -4.1080    0.8610   -0.7970 O   0  0  0  0  0  0  0  0  0  0  0  0
    2.8610    1.8940    0.2480 O   0  0  0  0  0  0  0  0  0  0  0  0
    3.8900   -0.6000   -2.1380 C   0  0  0  0  0  0  0  0  0  0  0  0
    4.9870   -0.6100   -2.0720 H   0  0  0  0  0  0  0  0  0  0  0  0
    3.7430   -1.0600   -3.1250 H   0  0  0  0  0  0  0  0  0  0  0  0
   -3.1570   -2.8630    0.8640 C   0  0  0  0  0  0  0  0  0  0  0  0
   -5.0880    1.8000   -0.9260 C   0  0  0  0  0  0  0  0  0  0  0  0
    3.4630    3.1070    0.3520 C   0  0  0  0  0  0  0  0  0  0  0  0
    3.4330    0.9760   -2.0860 C   0  0  0  0  0  0  0  0  0  0  0  0
    3.0730    1.2610   -3.0820 H   0  0  0  0  0  0  0  0  0  0  0  0
    4.3250    1.5820   -1.8860 H   0  0  0  0  0  0  0  0  0  0  0  0
   -4.9270    2.9460   -1.3210 O   0  0  0  0  0  0  0  0  0  0  0  0
   -2.9460   -2.8230    2.0650 O   0  0  0  0  0  0  0  0  0  0  0  0
    4.2530    3.3510    1.2600 O   0  0  0  0  0  0  0  0  0  0  0  0
    1.6320   -0.6400    2.1640 O   0  0  0  0  0  0  0  0  0  0  0  0
    4.2660   -0.6670    0.0470 C   0  0  0  0  0  0  0  0  0  0  0  0
    4.5470    0.3830    0.1470 H   0  0  0  0  0  0  0  0  0  0  0  0
    5.1560   -1.2210   -0.2830 H   0  0  0  0  0  0  0  0  0  0  0  0
   -0.3800   -2.7450   -1.9690 C   0  0  0  0  0  0  0  0  0  0  0  0
   -1.4640   -2.6290   -1.9690 H   0  0  0  0  0  0  0  0  0  0  0  0
   -0.1080   -2.9480   -3.0110 H   0  0  0  0  0  0  0  0  0  0  0  0
   -3.2160    2.1420    2.1520 O   0  0  0  0  0  0  0  0  0  0  0  0
    4.0710   -1.2190    1.3550 O   0  0  0  0  0  0  0  0  0  0  0  0
   -6.4050    1.2210   -0.5110 C   0  0  0  0  0  0  0  0  0  0  0  0
   -6.6560    0.3720   -1.1530 H   0  0  0  0  0  0  0  0  0  0  0  0
   -7.1850    1.9800   -0.6170 H   0  0  0  0  0  0  0  0  0  0  0  0
   -6.3600    0.9120    0.5360 H   0  0  0  0  0  0  0  0  0  0  0  0
   -4.0160   -3.8920    0.1940 C   0  0  0  0  0  0  0  0  0  0  0  0
   -3.4110   -4.4900   -0.4920 H   0  0  0  0  0  0  0  0  0  0  0  0
   -4.8330   -3.4010   -0.3410 H   0  0  0  0  0  0  0  0  0  0  0  0
   -4.4460   -4.5540    0.9510 H   0  0  0  0  0  0  0  0  0  0  0  0
    3.0980    4.1370   -0.6740 C   0  0  0  0  0  0  0  0  0  0  0  0
    2.0200    4.3170   -0.6620 H   0  0  0  0  0  0  0  0  0  0  0  0
    3.4410    3.8410   -1.6670 H   0  0  0  0  0  0  0  0  0  0  0  0
    3.5910    5.0810   -0.4190 H   0  0  0  0  0  0  0  0  0  0  0  0
    1.4410   -1.0650    3.5080 C   0  0  0  0  0  0  0  0  0  0  0  0
    1.7780   -0.2620    4.1700 H   0  0  0  0  0  0  0  0  0  0  0  0
    2.0360   -1.9590    3.7150 H   0  0  0  0  0  0  0  0  0  0  0  0
    0.3840   -1.2590    3.7100 H   0  0  0  0  0  0  0  0  0  0  0  0
   -2.7940    3.3380    2.7960 C   0  0  0  0  0  0  0  0  0  0  0  0
   -3.6500    3.7600    3.3280 H   0  0  0  0  0  0  0  0  0  0  0  0
   -2.4360    4.0750    2.0720 H   0  0  0  0  0  0  0  0  0  0  0  0
   -2.0080    3.1170    3.5240 H   0  0  0  0  0  0  0  0  0  0  0  0
    5.0540   -0.7690    2.2800 C   0  0  0  0  0  0  0  0  0  0  0  0
    4.8720   -1.2610    3.2390 H   0  0  0  0  0  0  0  0  0  0  0  0
    4.9760    0.3130    2.4230 H   0  0  0  0  0  0  0  0  0  0  0  0
    6.0580   -1.0350    1.9350 H   0  0  0  0  0  0  0  0  0  0  0  0
    0.0320   -3.9190   -1.1100 C   0  0  0  0  0  0  0  0  0  0  0  0
   -0.1750   -3.7680   -0.0510 H   0  0  0  0  0  0  0  0  0  0  0  0
    1.0860   -4.1770   -1.2440 H   0  0  0  0  0  0  0  0  0  0  0  0
   -0.5390   -4.8030   -1.4180 H   0  0  0  0  0  0  0  0  0  0  0  0
    1.7590   -2.3610   -0.5810 H   0  0  0  0  0  0  0  0  0  0  0  0
   -2.6110    3.1690   -0.0040 H   0  0  0  0  0  0  0  0  0  0  0  0
   -0.8040   -1.9500    1.7630 H   0  0  0  0  0  0  0  0  0  0  0  0
   -0.2680    0.3750    0.4060 H   0  0  0  0  0  0  0  0  0  0  0  0
   -2.0390   -0.4570   -2.0050 H   0  0  0  0  0  0  0  0  0  0  0  0
   -0.0760    1.1780   -2.3810 H   0  0  0  0  0  0  0  0  0  0  0  0
   -2.7870    1.7990   -2.0760 H   0  0  0  0  0  0  0  0  0  0  0  0
    1.4720   -2.6390    1.5610 H   0  0  0  0  0  0  0  0  0  0  0  0
    1.7120    2.2120   -1.4390 H   0  0  0  0  0  0  0  0  0  0  0  0
   -1.2290    1.6590    1.8940 H   0  0  0  0  0  0  0  0  0  0  0  0
  1  4  1  0  0  0  0
  1  6  1  0  0  0  0
  1  7  1  0  0  0  0
  1 17  1  0  0  0  0
  2  3  1  0  0  0  0
  2  5  1  0  0  0  0
  2 14  1  0  0  0  0
  2 25  1  0  0  0  0
  3  4  1  0  0  0  0
  3 12  1  0  0  0  0
  3 79  1  0  0  0  0
  4  9  1  0  0  0  0
  4 80  1  0  0  0  0
  5  7  1  0  0  0  0
  5 11  1  0  0  0  0
  5 81  1  0  0  0  0
  6  8  1  0  0  0  0
  6 12  1  0  0  0  0
  6 77  1  0  0  0  0
  7 18  1  0  0  0  0
  7 82  1  0  0  0  0
  8 21  1  0  0  0  0
  8 28  1  0  0  0  0
  8 41  1  0  0  0  0
  9 10  1  0  0  0  0
  9 21  1  0  0  0  0
  9 44  1  0  0  0  0
 11 13  1  0  0  0  0
 11 26  1  0  0  0  0
 11 83  1  0  0  0  0
 12 40  1  0  0  0  0
 12 84  1  0  0  0  0
 13 18  1  0  0  0  0
 13 24  1  0  0  0  0
 13 78  1  0  0  0  0
 14 15  1  0  0  0  0
 14 16  1  0  0  0  0
 14 24  1  0  0  0  0
 17 27  1  0  0  0  0
 17 34  1  0  0  0  0
 17 85  1  0  0  0  0
 18 19  1  0  0  0  0
 18 20  1  0  0  0  0
 21 22  1  0  0  0  0
 21 23  1  0  0  0  0
 24 47  1  0  0  0  0
 24 86  1  0  0  0  0
 25 31  1  0  0  0  0
 26 32  1  0  0  0  0
 27 33  1  0  0  0  0
 28 29  1  0  0  0  0
 28 30  1  0  0  0  0
 28 34  1  0  0  0  0
 31 38  2  0  0  0  0
 31 53  1  0  0  0  0
 32 37  2  0  0  0  0
 32 49  1  0  0  0  0
 33 39  2  0  0  0  0
 33 57  1  0  0  0  0
 34 35  1  0  0  0  0
 34 36  1  0  0  0  0
 40 61  1  0  0  0  0
 41 42  1  0  0  0  0
 41 43  1  0  0  0  0
 41 48  1  0  0  0  0
 44 45  1  0  0  0  0
 44 46  1  0  0  0  0
 44 73  1  0  0  0  0
 47 65  1  0  0  0  0
 48 69  1  0  0  0  0
 49 50  1  0  0  0  0
 49 51  1  0  0  0  0
 49 52  1  0  0  0  0
 53 54  1  0  0  0  0
 53 55  1  0  0  0  0
 53 56  1  0  0  0  0
 57 58  1  0  0  0  0
 57 59  1  0  0  0  0
 57 60  1  0  0  0  0
 61 62  1  0  0  0  0
 61 63  1  0  0  0  0
 61 64  1  0  0  0  0
 65 66  1  0  0  0  0
 65 67  1  0  0  0  0
 65 68  1  0  0  0  0
 69 70  1  0  0  0  0
 69 71  1  0  0  0  0
 69 72  1  0  0  0  0
 73 74  1  0  0  0  0
 73 75  1  0  0  0  0
 73 76  1  0  0  0  0
M  CHG  1   9   1
M  END
>  <IDNUMBER>
AK-693/43460797

>  <NAME>
Delphisine, derivative of

>  <ADD_INFO>
http://www.specs.net/enter.php?specsid=AK-693/43460797

>  <H_ACCEPTORS>
10

>  <H_DONORS>
0

>  <ROTATABLE_BONDS>
11

>  <LOGP>
2.0899999

>  <LOGS>
-4.0900002

>  <TPSA>
109.83

>  <PRICE>
N07

$$$$
AK-693/43460799
  MOE2011           3D

 59 59  0  0  1  0  0  0  0  0999 V2000
   -3.9280   -1.2660    0.7590 C   0  0  0  0  0  0  0  0  0  0  0  0
   -5.2640   -1.2030    0.5340 C   0  0  0  0  0  0  0  0  0  0  0  0
   -3.0710   -0.0600    0.9870 C   0  0  0  0  0  0  0  0  0  0  0  0
   -3.6530    1.2920    0.6920 C   0  0  0  0  0  0  0  0  0  0  0  0
   -4.9690    1.3510    0.4770 C   0  0  0  0  0  0  0  0  0  0  0  0
   -5.4640    2.2970    0.2880 H   0  0  0  0  0  0  0  0  0  0  0  0
   -5.8740    0.1890    0.4840 C   0  0  0  0  0  0  0  0  0  0  0  0
   -1.9200   -0.1900    1.4000 O   0  0  0  0  0  0  0  0  0  0  0  0
   -7.0820    0.4240    0.4260 O   0  0  0  0  0  0  0  0  0  0  0  0
   -2.8620    2.4360    0.6650 N   0  0  0  0  0  0  0  0  0  0  0  0
   -3.3600    3.3060    0.5040 H   0  0  0  0  0  0  0  0  0  0  0  0
   -6.0820   -2.1530    0.3560 O   0  5  0  0  0  0  0  0  0  0  0  0
   -3.2000   -2.6020    0.8610 C   0  0  0  0  0  0  0  0  0  0  0  0
   -2.3530   -2.5400    1.5520 H   0  0  0  0  0  0  0  0  0  0  0  0
   -3.8630   -3.3400    1.3320 H   0  0  0  0  0  0  0  0  0  0  0  0
   -1.4260    2.5650    0.8170 C   0  0  0  0  0  0  0  0  0  0  0  0
   -1.1970    3.6080    1.0610 H   0  0  0  0  0  0  0  0  0  0  0  0
   -1.0660    1.9890    1.6750 H   0  0  0  0  0  0  0  0  0  0  0  0
   -2.7470   -3.1750   -0.4910 C   0  0  0  0  0  0  0  0  0  0  0  0
   -2.4080   -4.2070   -0.3330 H   0  0  0  0  0  0  0  0  0  0  0  0
   -3.6110   -3.2410   -1.1640 H   0  0  0  0  0  0  0  0  0  0  0  0
   -0.6840    2.1600   -0.4580 C   0  0  0  0  0  0  0  0  0  0  0  0
    0.3950    2.2140   -0.2690 H   0  0  0  0  0  0  0  0  0  0  0  0
   -0.9060    1.1140   -0.6960 H   0  0  0  0  0  0  0  0  0  0  0  0
    5.9420   -0.1060    1.3930 C   0  0  0  0  0  0  0  0  0  0  0  0
    6.3240   -1.1180    1.5700 H   0  0  0  0  0  0  0  0  0  0  0  0
    6.6310    0.3840    0.6960 H   0  0  0  0  0  0  0  0  0  0  0  0
   -1.0170    3.0050   -1.6930 C   0  0  0  0  0  0  0  0  0  0  0  0
   -0.4830    2.5810   -2.5520 H   0  0  0  0  0  0  0  0  0  0  0  0
   -2.0850    2.9360   -1.9260 H   0  0  0  0  0  0  0  0  0  0  0  0
    4.5440   -0.1800    0.7770 C   0  0  0  0  0  0  0  0  0  0  0  0
    4.1670    0.8340    0.6020 H   0  0  0  0  0  0  0  0  0  0  0  0
    3.8660   -0.6610    1.4900 H   0  0  0  0  0  0  0  0  0  0  0  0
    3.2040   -0.9620   -1.2570 C   0  0  0  0  0  0  0  0  0  0  0  0
    3.3380   -1.4170   -2.2460 H   0  0  0  0  0  0  0  0  0  0  0  0
    2.8770    0.0710   -1.4260 H   0  0  0  0  0  0  0  0  0  0  0  0
    4.5580   -0.9580   -0.5420 C   0  0  0  0  0  0  0  0  0  0  0  0
    4.8830   -1.9900   -0.3620 H   0  0  0  0  0  0  0  0  0  0  0  0
    5.2980   -0.5070   -1.2150 H   0  0  0  0  0  0  0  0  0  0  0  0
   -1.6390   -2.3990   -1.2100 C   0  0  0  0  0  0  0  0  0  0  0  0
   -1.5280   -2.8200   -2.2170 H   0  0  0  0  0  0  0  0  0  0  0  0
   -1.9310   -1.3520   -1.3440 H   0  0  0  0  0  0  0  0  0  0  0  0
   -0.2880   -2.4860   -0.4960 C   0  0  0  0  0  0  0  0  0  0  0  0
   -0.3630   -2.0650    0.5110 H   0  0  0  0  0  0  0  0  0  0  0  0
    0.0000   -3.5380   -0.3800 H   0  0  0  0  0  0  0  0  0  0  0  0
    0.8020   -1.7450   -1.2730 C   0  0  0  0  0  0  0  0  0  0  0  0
    0.9500   -2.2250   -2.2480 H   0  0  0  0  0  0  0  0  0  0  0  0
    0.4830   -0.7140   -1.4660 H   0  0  0  0  0  0  0  0  0  0  0  0
    2.1200   -1.7310   -0.4980 C   0  0  0  0  0  0  0  0  0  0  0  0
    1.9500   -1.2700    0.4820 H   0  0  0  0  0  0  0  0  0  0  0  0
    2.4540   -2.7600   -0.3200 H   0  0  0  0  0  0  0  0  0  0  0  0
    5.9290    0.6610    2.7050 C   0  0  0  0  0  0  0  0  0  0  0  0
    5.2730    0.1790    3.4360 H   0  0  0  0  0  0  0  0  0  0  0  0
    5.5810    1.6880    2.5560 H   0  0  0  0  0  0  0  0  0  0  0  0
    6.9370    0.7030    3.1290 H   0  0  0  0  0  0  0  0  0  0  0  0
   -0.6210    4.4660   -1.5540 C   0  0  0  0  0  0  0  0  0  0  0  0
    0.4370    4.5640   -1.2870 H   0  0  0  0  0  0  0  0  0  0  0  0
   -1.2190    4.9740   -0.7920 H   0  0  0  0  0  0  0  0  0  0  0  0
   -0.7810    4.9900   -2.5010 H   0  0  0  0  0  0  0  0  0  0  0  0
  1  2  2  0  0  0  0
  1  3  1  0  0  0  0
  1 13  1  0  0  0  0
  2  7  1  0  0  0  0
  2 12  1  0  0  0  0
  3  4  1  0  0  0  0
  3  8  2  0  0  0  0
  4  5  2  0  0  0  0
  4 10  1  0  0  0  0
  5  6  1  0  0  0  0
  5  7  1  0  0  0  0
  7  9  2  0  0  0  0
 10 11  1  0  0  0  0
 10 16  1  0  0  0  0
 13 14  1  0  0  0  0
 13 15  1  0  0  0  0
 13 19  1  0  0  0  0
 16 17  1  0  0  0  0
 16 18  1  0  0  0  0
 16 22  1  0  0  0  0
 19 20  1  0  0  0  0
 19 21  1  0  0  0  0
 19 40  1  0  0  0  0
 22 23  1  0  0  0  0
 22 24  1  0  0  0  0
 22 28  1  0  0  0  0
 25 26  1  0  0  0  0
 25 27  1  0  0  0  0
 25 31  1  0  0  0  0
 25 52  1  0  0  0  0
 28 29  1  0  0  0  0
 28 30  1  0  0  0  0
 28 56  1  0  0  0  0
 31 32  1  0  0  0  0
 31 33  1  0  0  0  0
 31 37  1  0  0  0  0
 34 35  1  0  0  0  0
 34 36  1  0  0  0  0
 34 37  1  0  0  0  0
 34 49  1  0  0  0  0
 37 38  1  0  0  0  0
 37 39  1  0  0  0  0
 40 41  1  0  0  0  0
 40 42  1  0  0  0  0
 40 43  1  0  0  0  0
 43 44  1  0  0  0  0
 43 45  1  0  0  0  0
 43 46  1  0  0  0  0
 46 47  1  0  0  0  0
 46 48  1  0  0  0  0
 46 49  1  0  0  0  0
 49 50  1  0  0  0  0
 49 51  1  0  0  0  0
 52 53  1  0  0  0  0
 52 54  1  0  0  0  0
 52 55  1  0  0  0  0
 56 57  1  0  0  0  0
 56 58  1  0  0  0  0
 56 59  1  0  0  0  0
M  CHG  1  12  -1
M  END
>  <IDNUMBER>
AK-693/43460799

>  <NAME>
Embelin, derivative of

>  <ADD_INFO>
http://www.specs.net/enter.php?specsid=AK-693/43460799

>  <H_ACCEPTORS>
4

>  <H_DONORS>
2

>  <ROTATABLE_BONDS>
14

>  <LOGP>
6.1100001

>  <LOGS>
-6.96

>  <TPSA>
66.400002

>  <PRICE>
N07

$$$$
AK-693/43460801
  MOE2011           3D

 64 66  0  0  0  0  0  0  0  0999 V2000
    0.4160    2.2310   -0.9560 N   0  0  0  0  0  0  0  0  0  0  0  0
    0.0040    0.0170   -0.6360 C   0  0  0  0  0  0  0  0  0  0  0  0
   -1.2190    0.6870   -0.7230 C   0  0  0  0  0  0  0  0  0  0  0  0
    0.9970    1.0410   -0.7690 C   0  0  0  0  0  0  0  0  0  0  0  0
   -0.9350    2.0160   -0.9090 O   0  0  0  0  0  0  0  0  0  0  0  0
   -2.5450    0.1670   -0.6530 C   0  0  0  0  0  0  0  0  0  0  0  0
   -2.6690   -0.8990   -0.4940 H   0  0  0  0  0  0  0  0  0  0  0  0
    2.4270    0.9210   -0.7690 C   0  0  0  0  0  0  0  0  0  0  0  0
    2.9350    1.6540   -1.3930 H   0  0  0  0  0  0  0  0  0  0  0  0
    6.8260    1.0870   -0.1190 C   0  0  0  0  0  0  0  0  0  0  0  0
   -7.3110    0.9250    0.0230 C   0  0  0  0  0  0  0  0  0  0  0  0
   -3.6140    0.9720   -0.7630 C   0  0  0  0  0  0  0  0  0  0  0  0
   -3.4940    2.0450   -0.8960 H   0  0  0  0  0  0  0  0  0  0  0  0
    3.1690    0.0540   -0.0600 C   0  0  0  0  0  0  0  0  0  0  0  0
    2.7040   -0.6740    0.5950 H   0  0  0  0  0  0  0  0  0  0  0  0
   -7.6940   -0.3040   -0.5380 C   0  0  0  0  0  0  0  0  0  0  0  0
    7.4710   -0.1610   -0.0690 C   0  0  0  0  0  0  0  0  0  0  0  0
    5.4260    1.1640   -0.1460 C   0  0  0  0  0  0  0  0  0  0  0  0
    4.9640    2.1480   -0.1880 H   0  0  0  0  0  0  0  0  0  0  0  0
   -5.9630    1.3100   -0.0540 C   0  0  0  0  0  0  0  0  0  0  0  0
   -5.6290    2.2490    0.3780 H   0  0  0  0  0  0  0  0  0  0  0  0
    4.6400    0.0090   -0.0890 C   0  0  0  0  0  0  0  0  0  0  0  0
   -5.0060    0.4990   -0.6880 C   0  0  0  0  0  0  0  0  0  0  0  0
   -6.7540   -1.0930   -1.2080 C   0  0  0  0  0  0  0  0  0  0  0  0
   -7.0660   -2.0250   -1.6720 H   0  0  0  0  0  0  0  0  0  0  0  0
    6.6830   -1.3140    0.0060 C   0  0  0  0  0  0  0  0  0  0  0  0
    7.1230   -2.3050    0.0590 H   0  0  0  0  0  0  0  0  0  0  0  0
    5.2840   -1.2290    0.0060 C   0  0  0  0  0  0  0  0  0  0  0  0
    4.7040   -2.1480    0.0660 H   0  0  0  0  0  0  0  0  0  0  0  0
   -5.4190   -0.6970   -1.2820 C   0  0  0  0  0  0  0  0  0  0  0  0
   -4.7150   -1.3280   -1.8190 H   0  0  0  0  0  0  0  0  0  0  0  0
    0.1890   -1.4600   -0.4820 C   0  0  0  0  0  0  0  0  0  0  0  0
   -0.5380   -1.9860   -1.1140 H   0  0  0  0  0  0  0  0  0  0  0  0
    1.1710   -1.7650   -0.8580 H   0  0  0  0  0  0  0  0  0  0  0  0
   -8.2950    1.6900    0.5900 O   0  0  0  0  0  0  0  0  0  0  0  0
    7.4580    2.3030   -0.2040 O   0  0  0  0  0  0  0  0  0  0  0  0
   -8.9710   -0.8100   -0.5580 O   0  0  0  0  0  0  0  0  0  0  0  0
    8.8390   -0.1630   -0.1190 O   0  0  0  0  0  0  0  0  0  0  0  0
   -9.6580   -0.7530    0.6940 C   0  0  0  0  0  0  0  0  0  0  0  0
   -8.9680   -0.8270    1.5430 H   0  0  0  0  0  0  0  0  0  0  0  0
  -10.2260    0.1810    0.7560 H   0  0  0  0  0  0  0  0  0  0  0  0
    9.5110   -1.4210   -0.1020 C   0  0  0  0  0  0  0  0  0  0  0  0
    9.2890   -1.9590    0.8270 H   0  0  0  0  0  0  0  0  0  0  0  0
    9.2140   -2.0230   -0.9690 H   0  0  0  0  0  0  0  0  0  0  0  0
   -7.9320    2.9580    1.1190 C   0  0  0  0  0  0  0  0  0  0  0  0
   -8.8390    3.4290    1.5100 H   0  0  0  0  0  0  0  0  0  0  0  0
   -7.5290    3.6120    0.3380 H   0  0  0  0  0  0  0  0  0  0  0  0
   -7.2290    2.8510    1.9520 H   0  0  0  0  0  0  0  0  0  0  0  0
    8.5160    2.4840    0.7340 C   0  0  0  0  0  0  0  0  0  0  0  0
    8.5650    3.5500    0.9750 H   0  0  0  0  0  0  0  0  0  0  0  0
    9.4730    2.2050    0.2830 H   0  0  0  0  0  0  0  0  0  0  0  0
    8.3510    1.9390    1.6710 H   0  0  0  0  0  0  0  0  0  0  0  0
    0.0250   -1.9300    0.9560 C   0  0  0  0  0  0  0  0  0  0  0  0
   -0.9860   -1.7320    1.3270 H   0  0  0  0  0  0  0  0  0  0  0  0
    0.7270   -1.4270    1.6280 H   0  0  0  0  0  0  0  0  0  0  0  0
    0.2020   -3.0090    1.0240 H   0  0  0  0  0  0  0  0  0  0  0  0
   11.0040   -1.1530   -0.1730 C   0  0  0  0  0  0  0  0  0  0  0  0
   11.3250   -0.5380    0.6740 H   0  0  0  0  0  0  0  0  0  0  0  0
   11.2530   -0.5980   -1.0840 H   0  0  0  0  0  0  0  0  0  0  0  0
   11.5700   -2.0890   -0.1650 H   0  0  0  0  0  0  0  0  0  0  0  0
  -10.6300   -1.9190    0.7440 C   0  0  0  0  0  0  0  0  0  0  0  0
  -10.0940   -2.8700    0.6610 H   0  0  0  0  0  0  0  0  0  0  0  0
  -11.3310   -1.8730   -0.0960 H   0  0  0  0  0  0  0  0  0  0  0  0
  -11.1970   -1.9140    1.6790 H   0  0  0  0  0  0  0  0  0  0  0  0
  1  4  2  0  0  0  0
  1  5  1  0  0  0  0
  2  3  2  0  0  0  0
  2  4  1  0  0  0  0
  2 32  1  0  0  0  0
  3  5  1  0  0  0  0
  3  6  1  0  0  0  0
  4  8  1  0  0  0  0
  6  7  1  0  0  0  0
  6 12  2  0  0  0  0
  8  9  1  0  0  0  0
  8 14  2  0  0  0  0
 10 17  2  0  0  0  0
 10 18  1  0  0  0  0
 10 36  1  0  0  0  0
 11 16  2  0  0  0  0
 11 20  1  0  0  0  0
 11 35  1  0  0  0  0
 12 13  1  0  0  0  0
 12 23  1  0  0  0  0
 14 15  1  0  0  0  0
 14 22  1  0  0  0  0
 16 24  1  0  0  0  0
 16 37  1  0  0  0  0
 17 26  1  0  0  0  0
 17 38  1  0  0  0  0
 18 19  1  0  0  0  0
 18 22  2  0  0  0  0
 20 21  1  0  0  0  0
 20 23  2  0  0  0  0
 22 28  1  0  0  0  0
 23 30  1  0  0  0  0
 24 25  1  0  0  0  0
 24 30  2  0  0  0  0
 26 27  1  0  0  0  0
 26 28  2  0  0  0  0
 28 29  1  0  0  0  0
 30 31  1  0  0  0  0
 32 33  1  0  0  0  0
 32 34  1  0  0  0  0
 32 53  1  0  0  0  0
 35 45  1  0  0  0  0
 36 49  1  0  0  0  0
 37 39  1  0  0  0  0
 38 42  1  0  0  0  0
 39 40  1  0  0  0  0
 39 41  1  0  0  0  0
 39 61  1  0  0  0  0
 42 43  1  0  0  0  0
 42 44  1  0  0  0  0
 42 57  1  0  0  0  0
 45 46  1  0  0  0  0
 45 47  1  0  0  0  0
 45 48  1  0  0  0  0
 49 50  1  0  0  0  0
 49 51  1  0  0  0  0
 49 52  1  0  0  0  0
 53 54  1  0  0  0  0
 53 55  1  0  0  0  0
 53 56  1  0  0  0  0
 57 58  1  0  0  0  0
 57 59  1  0  0  0  0
 57 60  1  0  0  0  0
 61 62  1  0  0  0  0
 61 63  1  0  0  0  0
 61 64  1  0  0  0  0
M  END
>  <IDNUMBER>
AK-693/43460801

>  <NAME>
Curcumin, derivative of

>  <ADD_INFO>
http://www.specs.net/enter.php?specsid=AK-693/43460801

>  <H_ACCEPTORS>
0

>  <H_DONORS>
0

>  <ROTATABLE_BONDS>
11

>  <LOGP>
6.5900002

>  <LOGS>
-8.1000004

>  <TPSA>
62.950001

>  <PRICE>
N07

$$$$
AK-693/43460805
  MOE2011           3D

 53 56  0  0  1  0  0  0  0  0999 V2000
   -3.1030    1.3430   -0.0260 N   0  0  0  0  0  0  0  0  0  0  0  0
   -2.2000    0.2830   -0.0220 C   0  0  0  0  0  0  0  0  0  0  0  0
   -2.9870   -0.8810   -0.0350 C   0  0  0  0  0  0  0  0  0  0  0  0
   -4.3620   -0.4990    0.0090 C   0  0  0  0  0  0  0  0  0  0  0  0
   -4.4100    0.8910    0.0360 C   0  0  0  0  0  0  0  0  0  0  0  0
   -0.7780    0.2010   -0.0230 C   0  0  0  0  0  0  0  0  0  0  0  0
   -0.2010   -1.0810   -0.0830 C   0  0  0  0  0  0  0  0  0  0  0  0
    0.1160    1.3490    0.0450 C   0  0  0  0  0  0  0  0  0  0  0  0
   -0.2580    2.3530    0.1590 H   0  0  0  0  0  0  0  0  0  0  0  0
    1.1470   -1.3170   -0.1160 O   0  0  0  0  0  0  0  0  0  0  0  0
   -2.3660   -2.1460   -0.0760 C   0  0  0  0  0  0  0  0  0  0  0  0
   -2.9630   -3.0530   -0.0870 H   0  0  0  0  0  0  0  0  0  0  0  0
    1.4350    1.1520   -0.0320 C   0  0  0  0  0  0  0  0  0  0  0  0
    2.0870    2.0220   -0.0100 H   0  0  0  0  0  0  0  0  0  0  0  0
    2.0750   -0.2060   -0.1690 C   0  0  3  0  0  0  0  0  0  0  0  0
   -5.6340    1.5800    0.1040 C   0  0  0  0  0  0  0  0  0  0  0  0
   -5.6820    2.6630    0.1390 H   0  0  0  0  0  0  0  0  0  0  0  0
   -5.5720   -1.2300    0.0330 C   0  0  0  0  0  0  0  0  0  0  0  0
   -5.5440   -2.3160    0.0170 H   0  0  0  0  0  0  0  0  0  0  0  0
   -0.9780   -2.2330   -0.1080 C   0  0  0  0  0  0  0  0  0  0  0  0
   -0.5010   -3.2080   -0.1470 H   0  0  0  0  0  0  0  0  0  0  0  0
    6.2800    0.0100    0.0090 C   0  0  0  0  0  0  0  0  0  0  0  0
    5.1790    0.7490    0.2450 C   0  0  0  0  0  0  0  0  0  0  0  0
    4.9950    1.6180   -0.3860 H   0  0  0  0  0  0  0  0  0  0  0  0
   -2.7550    2.7460   -0.0990 C   0  0  0  0  0  0  0  0  0  0  0  0
   -3.6430    3.3590   -0.2570 H   0  0  0  0  0  0  0  0  0  0  0  0
   -2.0900    2.8980   -0.9520 H   0  0  0  0  0  0  0  0  0  0  0  0
   -2.2860    3.0350    0.8450 H   0  0  0  0  0  0  0  0  0  0  0  0
   -6.8190    0.8360    0.1300 C   0  0  0  0  0  0  0  0  0  0  0  0
   -7.7670    1.3670    0.1870 H   0  0  0  0  0  0  0  0  0  0  0  0
   -6.8020   -0.5580    0.0790 C   0  0  0  0  0  0  0  0  0  0  0  0
    4.1570    0.5340    1.3230 C   0  0  0  0  0  0  0  0  0  0  0  0
    4.6620    0.2190    2.2440 H   0  0  0  0  0  0  0  0  0  0  0  0
    3.7090    1.5010    1.5780 H   0  0  0  0  0  0  0  0  0  0  0  0
    3.0620   -0.4900    0.9940 C   0  0  0  0  0  0  0  0  0  0  0  0
    2.4690   -0.6290    1.9110 H   0  0  0  0  0  0  0  0  0  0  0  0
    3.5280   -1.4720    0.8260 H   0  0  0  0  0  0  0  0  0  0  0  0
    2.7430   -0.3110   -1.5480 C   0  0  0  0  0  0  0  0  0  0  0  0
    3.3920    0.5390   -1.7750 H   0  0  0  0  0  0  0  0  0  0  0  0
    1.9860   -0.3650   -2.3410 H   0  0  0  0  0  0  0  0  0  0  0  0
    3.3320   -1.2320   -1.6280 H   0  0  0  0  0  0  0  0  0  0  0  0
    6.6760   -1.2120    0.7890 C   0  0  0  0  0  0  0  0  0  0  0  0
    7.6500   -1.0550    1.2660 H   0  0  0  0  0  0  0  0  0  0  0  0
    6.7550   -2.0760    0.1200 H   0  0  0  0  0  0  0  0  0  0  0  0
    5.9630   -1.4740    1.5740 H   0  0  0  0  0  0  0  0  0  0  0  0
    7.2210    0.3690   -1.1110 C   0  0  0  0  0  0  0  0  0  0  0  0
    7.2830   -0.4540   -1.8320 H   0  0  0  0  0  0  0  0  0  0  0  0
    8.2230    0.5630   -0.7160 H   0  0  0  0  0  0  0  0  0  0  0  0
    6.8980    1.2630   -1.6550 H   0  0  0  0  0  0  0  0  0  0  0  0
   -8.0830   -1.3360    0.1350 C   0  0  0  0  0  0  0  0  0  0  0  0
   -8.9020   -0.7750   -0.3270 H   0  0  0  0  0  0  0  0  0  0  0  0
   -8.3450   -1.5520    1.1750 H   0  0  0  0  0  0  0  0  0  0  0  0
   -7.9910   -2.2810   -0.4110 H   0  0  0  0  0  0  0  0  0  0  0  0
  1  2  1  0  0  0  0
  1  5  1  0  0  0  0
  1 25  1  0  0  0  0
  2  3  2  0  0  0  0
  2  6  1  0  0  0  0
  3  4  1  0  0  0  0
  3 11  1  0  0  0  0
  4  5  2  0  0  0  0
  4 18  1  0  0  0  0
  5 16  1  0  0  0  0
  6  7  2  0  0  0  0
  6  8  1  0  0  0  0
  7 10  1  0  0  0  0
  7 20  1  0  0  0  0
  8  9  1  0  0  0  0
  8 13  2  0  0  0  0
 10 15  1  0  0  0  0
 11 12  1  0  0  0  0
 11 20  2  0  0  0  0
 13 14  1  0  0  0  0
 13 15  1  0  0  0  0
 15 35  1  0  0  0  0
 15 38  1  0  0  0  0
 16 17  1  0  0  0  0
 16 29  2  0  0  0  0
 18 19  1  0  0  0  0
 18 31  2  0  0  0  0
 20 21  1  0  0  0  0
 22 23  2  0  0  0  0
 22 42  1  0  0  0  0
 22 46  1  0  0  0  0
 23 24  1  0  0  0  0
 23 32  1  0  0  0  0
 25 26  1  0  0  0  0
 25 27  1  0  0  0  0
 25 28  1  0  0  0  0
 29 30  1  0  0  0  0
 29 31  1  0  0  0  0
 31 50  1  0  0  0  0
 32 33  1  0  0  0  0
 32 34  1  0  0  0  0
 32 35  1  0  0  0  0
 35 36  1  0  0  0  0
 35 37  1  0  0  0  0
 38 39  1  0  0  0  0
 38 40  1  0  0  0  0
 38 41  1  0  0  0  0
 42 43  1  0  0  0  0
 42 44  1  0  0  0  0
 42 45  1  0  0  0  0
 46 47  1  0  0  0  0
 46 48  1  0  0  0  0
 46 49  1  0  0  0  0
 50 51  1  0  0  0  0
 50 52  1  0  0  0  0
 50 53  1  0  0  0  0
M  END
>  <IDNUMBER>
AK-693/43460805

>  <NAME>
Mahanimbine, derivative of

>  <ADD_INFO>
http://www.specs.net/enter.php?specsid=AK-693/43460805

>  <H_ACCEPTORS>
1

>  <H_DONORS>
0

>  <ROTATABLE_BONDS>
3

>  <LOGP>
8.29

>  <LOGS>
-9.8999996

>  <TPSA>
14.16

>  <PRICE>
N07

$$$$
AK-693/43460806
  MOE2011           3D

 50 50  0  0  1  0  0  0  0  0999 V2000
   -1.3240    0.1680   -0.9820 C   0  0  0  0  0  0  0  0  0  0  0  0
   -1.2780   -0.3190   -1.9650 H   0  0  0  0  0  0  0  0  0  0  0  0
   -1.1310   -0.8980    0.1240 C   0  0  1  0  0  0  0  0  0  0  0  0
   -0.2410    1.2740   -0.9520 C   0  0  2  0  0  0  0  0  0  0  0  0
    1.3460   -0.3880    0.0770 C   0  0  0  0  0  0  0  0  0  0  0  0
    1.2270    0.1280    1.0400 H   0  0  0  0  0  0  0  0  0  0  0  0
    1.1650    0.6490   -1.0650 C   0  0  1  0  0  0  0  0  0  0  0  0
    0.2840   -1.5140    0.0470 C   0  0  2  0  0  0  0  0  0  0  0  0
   -2.6170    0.8110   -0.8530 O   0  0  0  0  0  0  0  0  0  0  0  0
   -1.3350   -0.2830    1.4180 O   0  0  0  0  0  0  0  0  0  0  0  0
   -0.3510    2.0300    0.2750 O   0  0  0  0  0  0  0  0  0  0  0  0
    2.6620   -0.9850    0.0730 O   0  0  0  0  0  0  0  0  0  0  0  0
    3.6640   -0.2390    0.6150 C   0  0  0  0  0  0  0  0  0  0  0  0
   -1.6560   -1.1150    2.4440 C   0  0  0  0  0  0  0  0  0  0  0  0
   -3.6940    0.1100   -1.3000 C   0  0  0  0  0  0  0  0  0  0  0  0
    0.1540    3.2930    0.2590 C   0  0  0  0  0  0  0  0  0  0  0  0
    3.5390    0.8790    1.0950 O   0  0  0  0  0  0  0  0  0  0  0  0
   -3.6620   -1.0080   -1.7950 O   0  0  0  0  0  0  0  0  0  0  0  0
   -1.7500   -2.3320    2.3710 O   0  0  0  0  0  0  0  0  0  0  0  0
    0.6910    3.8360   -0.6950 O   0  0  0  0  0  0  0  0  0  0  0  0
    0.4380   -2.2960   -1.1440 O   0  0  0  0  0  0  0  0  0  0  0  0
    1.2540    0.1150   -2.3920 O   0  0  0  0  0  0  0  0  0  0  0  0
   -4.9430    0.9090   -1.0950 C   0  0  0  0  0  0  0  0  0  0  0  0
   -5.0860    1.1040   -0.0290 H   0  0  0  0  0  0  0  0  0  0  0  0
   -5.8020    0.3410   -1.4640 H   0  0  0  0  0  0  0  0  0  0  0  0
   -4.8800    1.8470   -1.6530 H   0  0  0  0  0  0  0  0  0  0  0  0
    4.9580   -0.9870    0.5350 C   0  0  0  0  0  0  0  0  0  0  0  0
    5.2000   -1.1990   -0.5090 H   0  0  0  0  0  0  0  0  0  0  0  0
    4.8860   -1.9140    1.1100 H   0  0  0  0  0  0  0  0  0  0  0  0
    5.7580   -0.3740    0.9600 H   0  0  0  0  0  0  0  0  0  0  0  0
   -1.8670   -0.3200    3.6960 C   0  0  0  0  0  0  0  0  0  0  0  0
   -2.6730    0.4020    3.5450 H   0  0  0  0  0  0  0  0  0  0  0  0
   -0.9400    0.1890    3.9700 H   0  0  0  0  0  0  0  0  0  0  0  0
   -2.1510   -0.9940    4.5100 H   0  0  0  0  0  0  0  0  0  0  0  0
   -0.0340    3.9310    1.6010 C   0  0  0  0  0  0  0  0  0  0  0  0
   -1.0990    3.9740    1.8450 H   0  0  0  0  0  0  0  0  0  0  0  0
    0.3580    4.9510    1.5760 H   0  0  0  0  0  0  0  0  0  0  0  0
    0.5120    3.3640    2.3590 H   0  0  0  0  0  0  0  0  0  0  0  0
    2.5630   -0.2400   -2.8070 C   0  0  0  0  0  0  0  0  0  0  0  0
    2.5510   -0.3670   -3.8930 H   0  0  0  0  0  0  0  0  0  0  0  0
    2.8640   -1.1930   -2.3670 H   0  0  0  0  0  0  0  0  0  0  0  0
    3.2860    0.5440   -2.5610 H   0  0  0  0  0  0  0  0  0  0  0  0
   -0.1240   -3.5980   -1.0460 C   0  0  0  0  0  0  0  0  0  0  0  0
    0.0850   -4.1300   -1.9780 H   0  0  0  0  0  0  0  0  0  0  0  0
   -1.2080   -3.5530   -0.9140 H   0  0  0  0  0  0  0  0  0  0  0  0
    0.3340   -4.1540   -0.2220 H   0  0  0  0  0  0  0  0  0  0  0  0
   -1.9010   -1.6650   -0.0110 H   0  0  0  0  0  0  0  0  0  0  0  0
   -0.4380    1.9420   -1.8010 H   0  0  0  0  0  0  0  0  0  0  0  0
    1.9220    1.4350   -0.9620 H   0  0  0  0  0  0  0  0  0  0  0  0
    0.4800   -2.1590    0.9130 H   0  0  0  0  0  0  0  0  0  0  0  0
  1  2  1  0  0  0  0
  1  3  1  0  0  0  0
  1  4  1  0  0  0  0
  1  9  1  0  0  0  0
  3  8  1  0  0  0  0
  3 10  1  0  0  0  0
  3 47  1  0  0  0  0
  4  7  1  0  0  0  0
  4 11  1  0  0  0  0
  4 48  1  0  0  0  0
  5  6  1  0  0  0  0
  5  7  1  0  0  0  0
  5  8  1  0  0  0  0
  5 12  1  0  0  0  0
  7 22  1  0  0  0  0
  7 49  1  0  0  0  0
  8 21  1  0  0  0  0
  8 50  1  0  0  0  0
  9 15  1  0  0  0  0
 10 14  1  0  0  0  0
 11 16  1  0  0  0  0
 12 13  1  0  0  0  0
 13 17  2  0  0  0  0
 13 27  1  0  0  0  0
 14 19  2  0  0  0  0
 14 31  1  0  0  0  0
 15 18  2  0  0  0  0
 15 23  1  0  0  0  0
 16 20  2  0  0  0  0
 16 35  1  0  0  0  0
 21 43  1  0  0  0  0
 22 39  1  0  0  0  0
 23 24  1  0  0  0  0
 23 25  1  0  0  0  0
 23 26  1  0  0  0  0
 27 28  1  0  0  0  0
 27 29  1  0  0  0  0
 27 30  1  0  0  0  0
 31 32  1  0  0  0  0
 31 33  1  0  0  0  0
 31 34  1  0  0  0  0
 35 36  1  0  0  0  0
 35 37  1  0  0  0  0
 35 38  1  0  0  0  0
 39 40  1  0  0  0  0
 39 41  1  0  0  0  0
 39 42  1  0  0  0  0
 43 44  1  0  0  0  0
 43 45  1  0  0  0  0
 43 46  1  0  0  0  0
M  END
>  <IDNUMBER>
AK-693/43460806

>  <NAME>
2,4,5,6-Tetra-O-acetyldambonitol

>  <ADD_INFO>
http://www.specs.net/enter.php?specsid=AK-693/43460806

>  <H_ACCEPTORS>
10

>  <H_DONORS>
0

>  <ROTATABLE_BONDS>
10

>  <LOGP>
-0.63

>  <LOGS>
-1.4

>  <TPSA>
123.66

>  <PRICE>
N07

$$$$
AK-693/43460808
  MOE2011           3D

 35 38  0  0  0  0  0  0  0  0999 V2000
    0.1300   -0.2570   -0.1370 C   0  0  0  0  0  0  0  0  0  0  0  0
    0.1120    1.1540   -0.1400 C   0  0  0  0  0  0  0  0  0  0  0  0
   -1.1440    1.7900   -0.0740 C   0  0  0  0  0  0  0  0  0  0  0  0
   -2.3130    1.0370   -0.0320 C   0  0  0  0  0  0  0  0  0  0  0  0
   -1.0620   -1.0250   -0.1020 C   0  0  0  0  0  0  0  0  0  0  0  0
    1.3050   -0.9750   -0.1970 O   0  0  0  0  0  0  0  0  0  0  0  0
   -2.3170   -0.3730   -0.0480 C   0  0  0  0  0  0  0  0  0  0  0  0
   -1.4300    3.1380   -0.0440 N   0  0  0  0  0  0  0  0  0  0  0  0
   -3.3140    1.9770    0.0210 N   0  0  0  0  0  0  0  0  0  0  0  0
   -4.3050    1.7890    0.0600 H   0  0  0  0  0  0  0  0  0  0  0  0
   -2.7380    3.2150    0.0120 C   0  0  0  0  0  0  0  0  0  0  0  0
   -3.3190    4.1260    0.0480 H   0  0  0  0  0  0  0  0  0  0  0  0
    1.3840    1.9480   -0.1820 C   0  0  0  0  0  0  0  0  0  0  0  0
    1.2670    2.8170   -0.8390 H   0  0  0  0  0  0  0  0  0  0  0  0
    1.5990    2.3280    0.8240 H   0  0  0  0  0  0  0  0  0  0  0  0
    2.5410   -0.2730    0.0110 C   0  0  0  0  0  0  0  0  0  0  0  0
    2.5340    1.0930   -0.6830 C   0  0  0  0  0  0  0  0  0  0  0  0
    3.4840    1.6210   -0.5380 H   0  0  0  0  0  0  0  0  0  0  0  0
    2.4070    0.9490   -1.7650 H   0  0  0  0  0  0  0  0  0  0  0  0
   -1.0710   -2.4370   -0.1150 C   0  0  0  0  0  0  0  0  0  0  0  0
   -0.1320   -2.9870   -0.1560 H   0  0  0  0  0  0  0  0  0  0  0  0
   -3.5220   -1.1050   -0.0090 C   0  0  0  0  0  0  0  0  0  0  0  0
   -4.4860   -0.6080    0.0330 H   0  0  0  0  0  0  0  0  0  0  0  0
    3.6320   -1.1460   -0.6280 C   0  0  0  0  0  0  0  0  0  0  0  0
    4.6260   -0.7040   -0.5080 H   0  0  0  0  0  0  0  0  0  0  0  0
    3.4410   -1.2870   -1.6990 H   0  0  0  0  0  0  0  0  0  0  0  0
    3.6410   -2.1490   -0.1850 H   0  0  0  0  0  0  0  0  0  0  0  0
    2.8150   -0.1800    1.5190 C   0  0  0  0  0  0  0  0  0  0  0  0
    3.7610    0.3330    1.7230 H   0  0  0  0  0  0  0  0  0  0  0  0
    2.8620   -1.1800    1.9660 H   0  0  0  0  0  0  0  0  0  0  0  0
    2.0160    0.3470    2.0510 H   0  0  0  0  0  0  0  0  0  0  0  0
   -2.2660   -3.1620   -0.0770 C   0  0  0  0  0  0  0  0  0  0  0  0
   -2.2380   -4.2490   -0.0890 H   0  0  0  0  0  0  0  0  0  0  0  0
   -3.4880   -2.4980   -0.0240 C   0  0  0  0  0  0  0  0  0  0  0  0
   -4.4140   -3.0660    0.0050 H   0  0  0  0  0  0  0  0  0  0  0  0
  1  2  2  0  0  0  0
  1  5  1  0  0  0  0
  1  6  1  0  0  0  0
  2  3  1  0  0  0  0
  2 13  1  0  0  0  0
  3  4  2  0  0  0  0
  3  8  1  0  0  0  0
  4  7  1  0  0  0  0
  4  9  1  0  0  0  0
  5  7  2  0  0  0  0
  5 20  1  0  0  0  0
  6 16  1  0  0  0  0
  7 22  1  0  0  0  0
  8 11  2  0  0  0  0
  9 10  1  0  0  0  0
  9 11  1  0  0  0  0
 11 12  1  0  0  0  0
 13 14  1  0  0  0  0
 13 15  1  0  0  0  0
 13 17  1  0  0  0  0
 16 17  1  0  0  0  0
 16 24  1  0  0  0  0
 16 28  1  0  0  0  0
 17 18  1  0  0  0  0
 17 19  1  0  0  0  0
 20 21  1  0  0  0  0
 20 32  2  0  0  0  0
 22 23  1  0  0  0  0
 22 34  2  0  0  0  0
 24 25  1  0  0  0  0
 24 26  1  0  0  0  0
 24 27  1  0  0  0  0
 28 29  1  0  0  0  0
 28 30  1  0  0  0  0
 28 31  1  0  0  0  0
 32 33  1  0  0  0  0
 32 34  1  0  0  0  0
 34 35  1  0  0  0  0
M  END
>  <IDNUMBER>
AK-693/43460808

>  <NAME>
Lapachol, derivative of

>  <ADD_INFO>
http://www.specs.net/enter.php?specsid=AK-693/43460808

>  <H_ACCEPTORS>
2

>  <H_DONORS>
1

>  <ROTATABLE_BONDS>
0

>  <LOGP>
4.29

>  <LOGS>
-5.8099999

>  <TPSA>
37.91

>  <PRICE>
N07

$$$$
AK-820/13220073
  MOE2011           3D

 59 61  0  0  0  0  0  0  0  0999 V2000
   -3.3160   -0.5430   -0.3950 C   0  0  0  0  0  0  0  0  0  0  0  0
   -4.6000   -0.1630    0.2610 C   0  0  0  0  0  0  0  0  0  0  0  0
   -3.0120   -1.8270   -0.6440 C   0  0  0  0  0  0  0  0  0  0  0  0
   -4.9400    1.0600    0.5270 N   0  0  0  0  0  0  0  0  0  0  0  0
   -2.4270    0.4700   -0.7360 O   0  0  0  0  0  0  0  0  0  0  0  0
   -5.5290   -1.2520    0.6200 C   0  0  0  0  0  0  0  0  0  0  0  0
   -6.4530   -0.9430    1.0940 H   0  0  0  0  0  0  0  0  0  0  0  0
   -3.9640   -2.9180   -0.2830 C   0  0  0  0  0  0  0  0  0  0  0  0
   -5.2480   -2.5340    0.3720 C   0  0  0  0  0  0  0  0  0  0  0  0
   -4.0240    2.0600    0.1620 C   0  0  0  0  0  0  0  0  0  0  0  0
   -2.8040    1.7610   -0.4540 C   0  0  0  0  0  0  0  0  0  0  0  0
   -3.6950   -4.0930   -0.5190 O   0  0  0  0  0  0  0  0  0  0  0  0
   -4.3420    3.3970    0.4170 C   0  0  0  0  0  0  0  0  0  0  0  0
   -5.2950    3.6280    0.8880 H   0  0  0  0  0  0  0  0  0  0  0  0
   -1.9170    2.7750   -0.8120 C   0  0  0  0  0  0  0  0  0  0  0  0
   -0.9740    2.5330   -1.2950 H   0  0  0  0  0  0  0  0  0  0  0  0
   -6.1250   -3.5520    0.7050 O   0  0  0  0  0  0  0  0  0  0  0  0
   -6.9180   -3.1710    1.1170 H   0  0  0  0  0  0  0  0  0  0  0  0
   -1.7320   -2.2570   -1.3230 C   0  0  0  0  0  0  0  0  0  0  0  0
   -1.9440   -3.0550   -2.0460 H   0  0  0  0  0  0  0  0  0  0  0  0
   -1.3180   -1.4340   -1.9190 H   0  0  0  0  0  0  0  0  0  0  0  0
   -3.4550    4.4280    0.0750 C   0  0  0  0  0  0  0  0  0  0  0  0
   -2.2460    4.1060   -0.5530 C   0  0  0  0  0  0  0  0  0  0  0  0
   -1.5510    4.8910   -0.8440 H   0  0  0  0  0  0  0  0  0  0  0  0
   -3.8240    5.8620    0.3210 C   0  0  0  0  0  0  0  0  0  0  0  0
   -2.9310    6.4660    0.5120 H   0  0  0  0  0  0  0  0  0  0  0  0
   -4.4720    5.9530    1.1990 H   0  0  0  0  0  0  0  0  0  0  0  0
   -4.3470    6.2680   -0.5500 H   0  0  0  0  0  0  0  0  0  0  0  0
   -0.6790   -2.7250   -0.3120 C   0  0  0  0  0  0  0  0  0  0  0  0
   -0.4580   -1.9050    0.3810 H   0  0  0  0  0  0  0  0  0  0  0  0
   -1.0720   -3.5560    0.2860 H   0  0  0  0  0  0  0  0  0  0  0  0
    5.7750    1.8870   -0.2220 C   0  0  0  0  0  0  0  0  0  0  0  0
    5.0120    2.5100   -0.7020 H   0  0  0  0  0  0  0  0  0  0  0  0
    6.0970    2.4100    0.6860 H   0  0  0  0  0  0  0  0  0  0  0  0
    5.1800    0.5270    0.1450 C   0  0  0  0  0  0  0  0  0  0  0  0
    5.9460   -0.0890    0.6320 H   0  0  0  0  0  0  0  0  0  0  0  0
    4.8810    0.0090   -0.7730 H   0  0  0  0  0  0  0  0  0  0  0  0
    2.1640   -2.7790    1.0160 C   0  0  0  0  0  0  0  0  0  0  0  0
    1.3460   -2.5110    1.6940 H   0  0  0  0  0  0  0  0  0  0  0  0
    2.9030   -3.3150    1.6250 H   0  0  0  0  0  0  0  0  0  0  0  0
    2.8090   -1.5100    0.4530 C   0  0  0  0  0  0  0  0  0  0  0  0
    3.5870   -1.7930   -0.2650 H   0  0  0  0  0  0  0  0  0  0  0  0
    2.0620   -0.9180   -0.0880 H   0  0  0  0  0  0  0  0  0  0  0  0
    3.4120   -0.6540    1.5700 C   0  0  0  0  0  0  0  0  0  0  0  0
    2.6360   -0.4420    2.3160 H   0  0  0  0  0  0  0  0  0  0  0  0
    4.2000   -1.2170    2.0840 H   0  0  0  0  0  0  0  0  0  0  0  0
    3.9760    0.6820    1.0770 C   0  0  0  0  0  0  0  0  0  0  0  0
    3.1860    1.2500    0.5690 H   0  0  0  0  0  0  0  0  0  0  0  0
    4.2740    1.2710    1.9530 H   0  0  0  0  0  0  0  0  0  0  0  0
    1.6590   -3.7380   -0.0660 C   0  0  0  0  0  0  0  0  0  0  0  0
    1.2520   -4.6310    0.4250 H   0  0  0  0  0  0  0  0  0  0  0  0
    2.5150   -4.0800   -0.6620 H   0  0  0  0  0  0  0  0  0  0  0  0
    0.6020   -3.1720   -1.0190 C   0  0  0  0  0  0  0  0  0  0  0  0
    0.3530   -3.9530   -1.7490 H   0  0  0  0  0  0  0  0  0  0  0  0
    1.0220   -2.3380   -1.5940 H   0  0  0  0  0  0  0  0  0  0  0  0
    6.9630    1.7410   -1.1600 C   0  0  0  0  0  0  0  0  0  0  0  0
    6.6660    1.2530   -2.0940 H   0  0  0  0  0  0  0  0  0  0  0  0
    7.7570    1.1460   -0.6980 H   0  0  0  0  0  0  0  0  0  0  0  0
    7.3740    2.7240   -1.4070 H   0  0  0  0  0  0  0  0  0  0  0  0
  1  2  1  0  0  0  0
  1  3  2  0  0  0  0
  1  5  1  0  0  0  0
  2  4  2  0  0  0  0
  2  6  1  0  0  0  0
  3  8  1  0  0  0  0
  3 19  1  0  0  0  0
  4 10  1  0  0  0  0
  5 11  1  0  0  0  0
  6  7  1  0  0  0  0
  6  9  2  0  0  0  0
  8  9  1  0  0  0  0
  8 12  2  0  0  0  0
  9 17  1  0  0  0  0
 10 11  2  0  0  0  0
 10 13  1  0  0  0  0
 11 15  1  0  0  0  0
 13 14  1  0  0  0  0
 13 22  2  0  0  0  0
 15 16  1  0  0  0  0
 15 23  2  0  0  0  0
 17 18  1  0  0  0  0
 19 20  1  0  0  0  0
 19 21  1  0  0  0  0
 19 29  1  0  0  0  0
 22 23  1  0  0  0  0
 22 25  1  0  0  0  0
 23 24  1  0  0  0  0
 25 26  1  0  0  0  0
 25 27  1  0  0  0  0
 25 28  1  0  0  0  0
 29 30  1  0  0  0  0
 29 31  1  0  0  0  0
 29 53  1  0  0  0  0
 32 33  1  0  0  0  0
 32 34  1  0  0  0  0
 32 35  1  0  0  0  0
 32 56  1  0  0  0  0
 35 36  1  0  0  0  0
 35 37  1  0  0  0  0
 35 47  1  0  0  0  0
 38 39  1  0  0  0  0
 38 40  1  0  0  0  0
 38 41  1  0  0  0  0
 38 50  1  0  0  0  0
 41 42  1  0  0  0  0
 41 43  1  0  0  0  0
 41 44  1  0  0  0  0
 44 45  1  0  0  0  0
 44 46  1  0  0  0  0
 44 47  1  0  0  0  0
 47 48  1  0  0  0  0
 47 49  1  0  0  0  0
 50 51  1  0  0  0  0
 50 52  1  0  0  0  0
 50 53  1  0  0  0  0
 53 54  1  0  0  0  0
 53 55  1  0  0  0  0
 56 57  1  0  0  0  0
 56 58  1  0  0  0  0
 56 59  1  0  0  0  0
M  END
>  <IDNUMBER>
AK-820/13220073

>  <NAME>
2-hydroxy-8-methyl-4-undecyl-3H-phenoxazin-3-one

>  <ADD_INFO>
http://www.specs.net/enter.php?specsid=AK-820/13220073

>  <H_ACCEPTORS>
3

>  <H_DONORS>
1

>  <ROTATABLE_BONDS>
10

>  <LOGP>
8.7200003

>  <LOGS>
-9.4300003

>  <TPSA>
58.889999

>  <PRICE>
N07

$$$$
AK-861/20800015
  MOE2011           3D

 38 39  0  0  1  0  0  0  0  0999 V2000
   -3.4110    1.3730   -0.3050 C   0  0  0  0  0  0  0  0  0  0  0  0
   -3.2330   -0.0960   -0.2860 C   0  0  0  0  0  0  0  0  0  0  0  0
   -1.2430    0.9390    0.3010 C   0  0  3  0  0  0  0  0  0  0  0  0
   -2.1920    1.9370   -0.1040 O   0  0  0  0  0  0  0  0  0  0  0  0
   -1.7660   -0.3990   -0.2480 C   0  0  3  0  0  0  0  0  0  0  0  0
    0.0820    1.3180   -0.2990 C   0  0  0  0  0  0  0  0  0  0  0  0
    0.2170    1.0100   -1.3370 H   0  0  0  0  0  0  0  0  0  0  0  0
    1.1710    1.7950    0.3400 C   0  0  0  0  0  0  0  0  0  0  0  0
   -1.4060   -1.7060    0.5000 C   0  0  0  0  0  0  0  0  0  0  0  0
   -2.0170   -1.7740    1.4120 H   0  0  0  0  0  0  0  0  0  0  0  0
   -1.7420   -2.5420   -0.1300 H   0  0  0  0  0  0  0  0  0  0  0  0
    2.1260   -0.8140    0.4010 C   0  0  0  0  0  0  0  0  0  0  0  0
    2.1680   -0.5820    1.4660 H   0  0  0  0  0  0  0  0  0  0  0  0
   -4.4530    1.9760   -0.4890 O   0  0  0  0  0  0  0  0  0  0  0  0
    1.1530   -1.6390   -0.0390 C   0  0  0  0  0  0  0  0  0  0  0  0
    2.5540    1.6090   -0.2860 C   0  0  3  0  0  0  0  0  0  0  0  0
   -4.2850   -0.9230   -0.2860 C   0  0  0  0  0  0  0  0  0  0  0  0
   -5.3020   -0.5400   -0.3110 H   0  0  0  0  0  0  0  0  0  0  0  0
   -4.1650   -2.0010   -0.2710 H   0  0  0  0  0  0  0  0  0  0  0  0
    2.9720    0.1040   -0.4510 C   0  0  0  0  0  0  0  0  0  0  0  0
    2.9280   -0.1710   -1.5100 H   0  0  0  0  0  0  0  0  0  0  0  0
    4.0220   -0.0090   -0.1560 H   0  0  0  0  0  0  0  0  0  0  0  0
    0.0470   -2.0180    0.9220 C   0  0  0  0  0  0  0  0  0  0  0  0
    0.1230   -3.0930    1.1290 H   0  0  0  0  0  0  0  0  0  0  0  0
    0.2080   -1.5250    1.8910 H   0  0  0  0  0  0  0  0  0  0  0  0
    2.5680    2.2580   -1.5570 O   0  0  0  0  0  0  0  0  0  0  0  0
    3.4770    2.2110   -1.8970 H   0  0  0  0  0  0  0  0  0  0  0  0
    1.1640    2.3340    1.7430 C   0  0  0  0  0  0  0  0  0  0  0  0
    1.6740    3.3030    1.7700 H   0  0  0  0  0  0  0  0  0  0  0  0
    1.6830    1.6530    2.4230 H   0  0  0  0  0  0  0  0  0  0  0  0
    0.1540    2.4990    2.1280 H   0  0  0  0  0  0  0  0  0  0  0  0
    1.0430   -2.1440   -1.4490 C   0  0  0  0  0  0  0  0  0  0  0  0
    0.7140   -3.1890   -1.4490 H   0  0  0  0  0  0  0  0  0  0  0  0
    2.0060   -2.1240   -1.9680 H   0  0  0  0  0  0  0  0  0  0  0  0
    0.3300   -1.5580   -2.0330 H   0  0  0  0  0  0  0  0  0  0  0  0
   -1.2110    0.9230    1.3960 H   0  0  0  0  0  0  0  0  0  0  0  0
   -1.4620   -0.5120   -1.2970 H   0  0  0  0  0  0  0  0  0  0  0  0
    3.3040    2.1150    0.3340 H   0  0  0  0  0  0  0  0  0  0  0  0
  1  2  1  0  0  0  0
  1  4  1  0  0  0  0
  1 14  2  0  0  0  0
  2  5  1  0  0  0  0
  2 17  2  0  0  0  0
  3  4  1  0  0  0  0
  3  5  1  0  0  0  0
  3  6  1  0  0  0  0
  3 36  1  0  0  0  0
  5  9  1  0  0  0  0
  5 37  1  0  0  0  0
  6  7  1  0  0  0  0
  6  8  2  0  0  0  0
  8 16  1  0  0  0  0
  8 28  1  0  0  0  0
  9 10  1  0  0  0  0
  9 11  1  0  0  0  0
  9 23  1  0  0  0  0
 12 13  1  0  0  0  0
 12 15  2  0  0  0  0
 12 20  1  0  0  0  0
 15 23  1  0  0  0  0
 15 32  1  0  0  0  0
 16 20  1  0  0  0  0
 16 26  1  0  0  0  0
 16 38  1  0  0  0  0
 17 18  1  0  0  0  0
 17 19  1  0  0  0  0
 20 21  1  0  0  0  0
 20 22  1  0  0  0  0
 23 24  1  0  0  0  0
 23 25  1  0  0  0  0
 26 27  1  0  0  0  0
 28 29  1  0  0  0  0
 28 30  1  0  0  0  0
 28 31  1  0  0  0  0
 32 33  1  0  0  0  0
 32 34  1  0  0  0  0
 32 35  1  0  0  0  0
M  END
>  <IDNUMBER>
AK-861/20800015

>  <NAME>
Hanphillin

>  <ADD_INFO>
http://www.specs.net/enter.php?specsid=AK-861/20800015

>  <H_ACCEPTORS>
3

>  <H_DONORS>
1

>  <ROTATABLE_BONDS>
0

>  <LOGP>
2.5599999

>  <LOGS>
-2.6900001

>  <TPSA>
46.529999

>  <PRICE>
N09

$$$$
AK-861/20800016
  MOE2011           3D

 37 39  0  0  1  0  0  0  0  0999 V2000
    4.1720   -0.3750    0.1450 C   0  0  0  0  0  0  0  0  0  0  0  0
   -0.4120    0.5020   -0.1630 C   0  0  0  0  0  0  0  0  0  0  0  0
    3.3420    0.8560   -0.0600 C   0  0  0  0  0  0  0  0  0  0  0  0
    1.9960    0.4840    0.4320 C   0  0  3  0  0  0  0  0  0  0  0  0
    0.7530    1.1770   -0.0100 C   0  0  0  0  0  0  0  0  0  0  0  0
    0.7620    2.2630   -0.0300 H   0  0  0  0  0  0  0  0  0  0  0  0
    3.3010   -1.4130    0.4040 O   0  0  0  0  0  0  0  0  0  0  0  0
    2.0230   -0.9560   -0.0180 C   0  0  3  0  0  0  0  0  0  0  0  0
   -0.4900   -1.0430   -0.0790 C   0  0  3  0  0  0  0  0  0  0  0  0
    0.8050   -1.6600    0.5600 C   0  0  0  0  0  0  0  0  0  0  0  0
    0.8680   -2.7400    0.3800 H   0  0  0  0  0  0  0  0  0  0  0  0
    0.7970   -1.5480    1.6520 H   0  0  0  0  0  0  0  0  0  0  0  0
    5.3860   -0.4470    0.1230 O   0  0  0  0  0  0  0  0  0  0  0  0
    3.8150    1.9840   -0.5970 C   0  0  0  0  0  0  0  0  0  0  0  0
    4.8540    2.0630   -0.9070 H   0  0  0  0  0  0  0  0  0  0  0  0
    3.1840    2.8540   -0.7360 H   0  0  0  0  0  0  0  0  0  0  0  0
   -1.7220    1.2800   -0.2780 C   0  0  3  0  0  0  0  0  0  0  0  0
   -1.7030   -1.4240    0.7920 C   0  0  0  0  0  0  0  0  0  0  0  0
   -1.7880   -2.5160    0.8760 H   0  0  0  0  0  0  0  0  0  0  0  0
   -1.5360   -1.0620    1.8160 H   0  0  0  0  0  0  0  0  0  0  0  0
   -0.6320   -1.6590   -1.4960 C   0  0  0  0  0  0  0  0  0  0  0  0
   -0.5320   -2.7500   -1.4570 H   0  0  0  0  0  0  0  0  0  0  0  0
    0.1310   -1.2800   -2.1850 H   0  0  0  0  0  0  0  0  0  0  0  0
   -1.5960   -1.4610   -1.9660 H   0  0  0  0  0  0  0  0  0  0  0  0
   -3.0420   -0.8560    0.3050 C   0  0  0  0  0  0  0  0  0  0  0  0
   -3.5860   -1.6290   -0.2520 H   0  0  0  0  0  0  0  0  0  0  0  0
   -3.6630   -0.6320    1.1820 H   0  0  0  0  0  0  0  0  0  0  0  0
   -2.9370    0.3920   -0.5760 C   0  0  0  0  0  0  0  0  0  0  0  0
   -3.8660    0.9700   -0.4880 H   0  0  0  0  0  0  0  0  0  0  0  0
   -2.9050    0.0930   -1.6300 H   0  0  0  0  0  0  0  0  0  0  0  0
   -1.9940    2.1000    0.9950 C   0  0  0  0  0  0  0  0  0  0  0  0
   -2.9390    2.6460    0.9090 H   0  0  0  0  0  0  0  0  0  0  0  0
   -1.2100    2.8440    1.1710 H   0  0  0  0  0  0  0  0  0  0  0  0
   -2.0540    1.4610    1.8830 H   0  0  0  0  0  0  0  0  0  0  0  0
    2.0360    0.5540    1.5300 H   0  0  0  0  0  0  0  0  0  0  0  0
    2.0070   -1.0600   -1.1130 H   0  0  0  0  0  0  0  0  0  0  0  0
   -1.6260    1.9880   -1.1130 H   0  0  0  0  0  0  0  0  0  0  0  0
  1  3  1  0  0  0  0
  1  7  1  0  0  0  0
  1 13  2  0  0  0  0
  2  5  2  0  0  0  0
  2  9  1  0  0  0  0
  2 17  1  0  0  0  0
  3  4  1  0  0  0  0
  3 14  2  0  0  0  0
  4  5  1  0  0  0  0
  4  8  1  0  0  0  0
  4 35  1  0  0  0  0
  5  6  1  0  0  0  0
  7  8  1  0  0  0  0
  8 10  1  0  0  0  0
  8 36  1  0  0  0  0
  9 10  1  0  0  0  0
  9 18  1  0  0  0  0
  9 21  1  0  0  0  0
 10 11  1  0  0  0  0
 10 12  1  0  0  0  0
 14 15  1  0  0  0  0
 14 16  1  0  0  0  0
 17 28  1  0  0  0  0
 17 31  1  0  0  0  0
 17 37  1  0  0  0  0
 18 19  1  0  0  0  0
 18 20  1  0  0  0  0
 18 25  1  0  0  0  0
 21 22  1  0  0  0  0
 21 23  1  0  0  0  0
 21 24  1  0  0  0  0
 25 26  1  0  0  0  0
 25 27  1  0  0  0  0
 25 28  1  0  0  0  0
 28 29  1  0  0  0  0
 28 30  1  0  0  0  0
 31 32  1  0  0  0  0
 31 33  1  0  0  0  0
 31 34  1  0  0  0  0
M  END
>  <IDNUMBER>
AK-861/20800016

>  <NAME>
Alantolactone

>  <ADD_INFO>
http://www.specs.net/enter.php?specsid=AK-861/20800016

>  <H_ACCEPTORS>
2

>  <H_DONORS>
0

>  <ROTATABLE_BONDS>
0

>  <LOGP>
3.3800001

>  <LOGS>
-3.78

>  <TPSA>
26.299999

>  <PRICE>
N09

$$$$
AK-861/20800026
  MOE2011           3D

 36 38  0  0  1  0  0  0  0  0999 V2000
   -0.8400    0.4970   -0.3210 C   0  0  0  0  0  0  0  0  0  0  0  0
    0.6470    0.4900   -0.6390 C   0  0  1  0  0  0  0  0  0  0  0  0
    1.3510    1.7270   -0.5700 O   0  0  0  0  0  0  0  0  0  0  0  0
    2.6640    1.4510   -0.2730 C   0  0  0  0  0  0  0  0  0  0  0  0
   -1.5760    1.5970   -0.0320 C   0  0  0  0  0  0  0  0  0  0  0  0
    1.3780   -0.3580    0.3820 C   0  0  2  0  0  0  0  0  0  0  0  0
   -1.4260   -0.9360   -0.3300 C   0  0  2  0  0  0  0  0  0  0  0  0
    2.8180   -0.0230    0.0430 C   0  0  2  0  0  0  0  0  0  0  0  0
   -3.0140    1.4530    0.3630 C   0  0  0  0  0  0  0  0  0  0  0  0
   -2.8440   -0.9820    0.1940 C   0  0  0  0  0  0  0  0  0  0  0  0
   -3.3070   -1.9610    0.3030 H   0  0  0  0  0  0  0  0  0  0  0  0
   -3.5690    0.0950    0.5050 C   0  0  0  0  0  0  0  0  0  0  0  0
   -4.5900    0.0200    0.8590 H   0  0  0  0  0  0  0  0  0  0  0  0
    0.9420   -1.8090    0.2970 C   0  0  0  0  0  0  0  0  0  0  0  0
    1.1810   -2.2320   -0.6850 H   0  0  0  0  0  0  0  0  0  0  0  0
    1.4750   -2.4120    1.0410 H   0  0  0  0  0  0  0  0  0  0  0  0
    3.5560    2.2830   -0.2810 O   0  0  0  0  0  0  0  0  0  0  0  0
   -0.5700   -1.8890    0.5590 C   0  0  0  0  0  0  0  0  0  0  0  0
   -0.7410   -1.6490    1.6190 H   0  0  0  0  0  0  0  0  0  0  0  0
   -0.8950   -2.9290    0.4270 H   0  0  0  0  0  0  0  0  0  0  0  0
   -3.7360    2.4180    0.5930 O   0  0  0  0  0  0  0  0  0  0  0  0
   -1.0690    3.0120   -0.0680 C   0  0  0  0  0  0  0  0  0  0  0  0
   -1.8720    3.7540   -0.0110 H   0  0  0  0  0  0  0  0  0  0  0  0
   -0.5460    3.2180   -1.0080 H   0  0  0  0  0  0  0  0  0  0  0  0
   -0.3970    3.1990    0.7760 H   0  0  0  0  0  0  0  0  0  0  0  0
   -1.4830   -1.4730   -1.7780 C   0  0  0  0  0  0  0  0  0  0  0  0
   -1.9630   -2.4590   -1.8190 H   0  0  0  0  0  0  0  0  0  0  0  0
   -0.4910   -1.5890   -2.2240 H   0  0  0  0  0  0  0  0  0  0  0  0
   -2.0570   -0.8020   -2.4290 H   0  0  0  0  0  0  0  0  0  0  0  0
    3.7790   -0.2800    1.1890 C   0  0  0  0  0  0  0  0  0  0  0  0
    3.7960   -1.3410    1.4570 H   0  0  0  0  0  0  0  0  0  0  0  0
    3.5070    0.2970    2.0800 H   0  0  0  0  0  0  0  0  0  0  0  0
    4.7960    0.0160    0.9110 H   0  0  0  0  0  0  0  0  0  0  0  0
    1.1610    0.0170    1.3950 H   0  0  0  0  0  0  0  0  0  0  0  0
    0.7830    0.1190   -1.6630 H   0  0  0  0  0  0  0  0  0  0  0  0
    3.1500   -0.5380   -0.8650 H   0  0  0  0  0  0  0  0  0  0  0  0
  1  2  1  0  0  0  0
  1  5  2  0  0  0  0
  1  7  1  0  0  0  0
  2  3  1  0  0  0  0
  2  6  1  0  0  0  0
  2 35  1  0  0  0  0
  3  4  1  0  0  0  0
  4  8  1  0  0  0  0
  4 17  2  0  0  0  0
  5  9  1  0  0  0  0
  5 22  1  0  0  0  0
  6  8  1  0  0  0  0
  6 14  1  0  0  0  0
  6 34  1  0  0  0  0
  7 10  1  0  0  0  0
  7 18  1  0  0  0  0
  7 26  1  0  0  0  0
  8 30  1  0  0  0  0
  8 36  1  0  0  0  0
  9 12  1  0  0  0  0
  9 21  2  0  0  0  0
 10 11  1  0  0  0  0
 10 12  2  0  0  0  0
 12 13  1  0  0  0  0
 14 15  1  0  0  0  0
 14 16  1  0  0  0  0
 14 18  1  0  0  0  0
 18 19  1  0  0  0  0
 18 20  1  0  0  0  0
 22 23  1  0  0  0  0
 22 24  1  0  0  0  0
 22 25  1  0  0  0  0
 26 27  1  0  0  0  0
 26 28  1  0  0  0  0
 26 29  1  0  0  0  0
 30 31  1  0  0  0  0
 30 32  1  0  0  0  0
 30 33  1  0  0  0  0
M  END
>  <IDNUMBER>
AK-861/20800026

>  <NAME>
alpha-Santonin

>  <ADD_INFO>
http://www.specs.net/enter.php?specsid=AK-861/20800026

>  <H_ACCEPTORS>
3

>  <H_DONORS>
0

>  <ROTATABLE_BONDS>
0

>  <LOGP>
1.78

>  <LOGS>
-2.51

>  <TPSA>
43.369999

>  <PRICE>
N07

$$$$
AK-906/37310010
  MOE2011           3D

 32 34  0  0  1  0  0  0  0  0999 V2000
    0.4060    1.3100   -0.0730 C   0  0  0  0  0  0  0  0  0  0  0  0
   -0.9520    1.8800   -0.1080 C   0  0  0  0  0  0  0  0  0  0  0  0
    0.5640   -0.0850   -0.0830 C   0  0  0  0  0  0  0  0  0  0  0  0
   -0.5810   -0.9120   -0.1740 N   0  0  0  0  0  0  0  0  0  0  0  0
   -2.1150    0.9780   -0.0220 C   0  0  0  0  0  0  0  0  0  0  0  0
   -1.8970   -0.4120   -0.0360 C   0  0  0  0  0  0  0  0  0  0  0  0
    1.5080    2.1730   -0.0160 C   0  0  0  0  0  0  0  0  0  0  0  0
    1.8820   -0.5780    0.0180 C   0  0  0  0  0  0  0  0  0  0  0  0
    2.0460   -1.6480    0.0660 H   0  0  0  0  0  0  0  0  0  0  0  0
    2.7940    1.6630    0.0580 C   0  0  0  0  0  0  0  0  0  0  0  0
    3.6440    2.3380    0.1050 H   0  0  0  0  0  0  0  0  0  0  0  0
   -1.0750    3.1020   -0.1740 O   0  0  0  0  0  0  0  0  0  0  0  0
    2.9890    0.2830    0.0820 C   0  0  0  0  0  0  0  0  0  0  0  0
    1.3630    3.5370   -0.0240 O   0  0  0  0  0  0  0  0  0  0  0  0
    0.3910    3.7190   -0.0930 H   0  0  0  0  0  0  0  0  0  0  0  0
   -0.3980   -2.3450   -0.4180 C   0  0  0  0  0  0  0  0  0  0  0  0
   -1.2230   -2.7790   -0.9950 H   0  0  0  0  0  0  0  0  0  0  0  0
   -0.3060   -2.8860    0.5290 H   0  0  0  0  0  0  0  0  0  0  0  0
    0.4830   -2.5540   -1.0350 H   0  0  0  0  0  0  0  0  0  0  0  0
   -3.3970    1.5330    0.0900 C   0  0  0  0  0  0  0  0  0  0  0  0
   -3.5360    2.6120    0.0920 H   0  0  0  0  0  0  0  0  0  0  0  0
   -3.0320   -1.2280    0.1080 C   0  0  0  0  0  0  0  0  0  0  0  0
   -2.9510   -2.3100    0.1520 H   0  0  0  0  0  0  0  0  0  0  0  0
    4.3000   -0.1020    0.1750 O   0  0  0  0  0  0  0  0  0  0  0  0
    4.5700   -1.4980    0.1760 C   0  0  0  0  0  0  0  0  0  0  0  0
    5.6550   -1.6290    0.2360 H   0  0  0  0  0  0  0  0  0  0  0  0
    4.2290   -1.9680   -0.7530 H   0  0  0  0  0  0  0  0  0  0  0  0
    4.1280   -1.9840    1.0520 H   0  0  0  0  0  0  0  0  0  0  0  0
   -4.5010    0.6970    0.2080 C   0  0  0  0  0  0  0  0  0  0  0  0
   -5.4990    1.1170    0.2990 H   0  0  0  0  0  0  0  0  0  0  0  0
   -4.3170   -0.6820    0.2240 C   0  0  0  0  0  0  0  0  0  0  0  0
   -5.1750   -1.3410    0.3330 H   0  0  0  0  0  0  0  0  0  0  0  0
  1  2  1  0  0  0  0
  1  3  2  0  0  0  0
  1  7  1  0  0  0  0
  2  5  1  0  0  0  0
  2 12  2  0  0  0  0
  3  4  1  0  0  0  0
  3  8  1  0  0  0  0
  4  6  1  0  0  0  0
  4 16  1  0  0  0  0
  5  6  2  0  0  0  0
  5 20  1  0  0  0  0
  6 22  1  0  0  0  0
  7 10  2  0  0  0  0
  7 14  1  0  0  0  0
  8  9  1  0  0  0  0
  8 13  2  0  0  0  0
 10 11  1  0  0  0  0
 10 13  1  0  0  0  0
 13 24  1  0  0  0  0
 14 15  1  0  0  0  0
 16 17  1  0  0  0  0
 16 18  1  0  0  0  0
 16 19  1  0  0  0  0
 20 21  1  0  0  0  0
 20 29  2  0  0  0  0
 22 23  1  0  0  0  0
 22 31  2  0  0  0  0
 24 25  1  0  0  0  0
 25 26  1  0  0  0  0
 25 27  1  0  0  0  0
 25 28  1  0  0  0  0
 29 30  1  0  0  0  0
 29 31  1  0  0  0  0
 31 32  1  0  0  0  0
M  END
>  <IDNUMBER>
AK-906/37310010

>  <NAME>
1-hydroxy-3-methoxy-10-methyl-9(10H)-acridinone

>  <ADD_INFO>
http://www.specs.net/enter.php?specsid=AK-906/37310010

>  <H_ACCEPTORS>
2

>  <H_DONORS>
1

>  <ROTATABLE_BONDS>
1

>  <LOGP>
2.26

>  <LOGS>
-4.0999999

>  <TPSA>
49.77

>  <PRICE>
N07

$$$$
AK-967/37080014
  MOE2011           3D

 48 50  0  0  0  0  0  0  0  0999 V2000
   -1.5680    1.0380   -0.5730 C   0  0  0  0  0  0  0  0  0  0  0  0
   -0.5760    1.9490   -1.2210 C   0  0  0  0  0  0  0  0  0  0  0  0
   -1.8150   -0.2670   -1.0170 C   0  0  0  0  0  0  0  0  0  0  0  0
   -1.3020   -0.6360   -1.8960 H   0  0  0  0  0  0  0  0  0  0  0  0
   -0.5680    3.2320   -1.0400 N   0  0  0  0  0  0  0  0  0  0  0  0
   -2.2540    1.5460    0.5360 C   0  0  0  0  0  0  0  0  0  0  0  0
   -2.7320   -1.0860   -0.3420 C   0  0  0  0  0  0  0  0  0  0  0  0
   -3.1550    0.7300    1.2220 C   0  0  0  0  0  0  0  0  0  0  0  0
   -3.6830    1.1070    2.0960 H   0  0  0  0  0  0  0  0  0  0  0  0
   -3.3810   -0.5840    0.8000 C   0  0  0  0  0  0  0  0  0  0  0  0
    3.1560    0.4010    0.4950 C   0  0  0  0  0  0  0  0  0  0  0  0
    0.5210    1.3660   -2.1020 C   0  0  0  0  0  0  0  0  0  0  0  0
    0.0610    0.7700   -2.8980 H   0  0  0  0  0  0  0  0  0  0  0  0
    1.0470    2.1850   -2.6100 H   0  0  0  0  0  0  0  0  0  0  0  0
    3.4580   -0.9190    0.1080 C   0  0  0  0  0  0  0  0  0  0  0  0
    2.2060    1.1330   -0.2300 C   0  0  0  0  0  0  0  0  0  0  0  0
    1.9660    2.1590    0.0380 H   0  0  0  0  0  0  0  0  0  0  0  0
    1.5380    0.5640   -1.3250 C   0  0  0  0  0  0  0  0  0  0  0  0
    2.8030   -1.4810   -0.9930 C   0  0  0  0  0  0  0  0  0  0  0  0
    3.0110   -2.4920   -1.3280 H   0  0  0  0  0  0  0  0  0  0  0  0
   -1.6380    3.8100   -0.2190 C   0  0  0  0  0  0  0  0  0  0  0  0
   -1.3180    4.8010    0.1220 H   0  0  0  0  0  0  0  0  0  0  0  0
   -2.5280    3.9580   -0.8430 H   0  0  0  0  0  0  0  0  0  0  0  0
    1.8540   -0.7440   -1.7050 C   0  0  0  0  0  0  0  0  0  0  0  0
    1.3660   -1.2030   -2.5620 H   0  0  0  0  0  0  0  0  0  0  0  0
   -3.0640   -2.3550   -0.7370 O   0  0  0  0  0  0  0  0  0  0  0  0
   -4.3080   -1.2690    1.5460 O   0  0  0  0  0  0  0  0  0  0  0  0
    3.8410    0.8850    1.5830 O   0  0  0  0  0  0  0  0  0  0  0  0
    4.4030   -1.5700    0.8640 O   0  0  0  0  0  0  0  0  0  0  0  0
   -1.9590    2.9450    0.9930 C   0  0  0  0  0  0  0  0  0  0  0  0
   -1.1060    2.9180    1.6820 H   0  0  0  0  0  0  0  0  0  0  0  0
   -2.8160    3.3710    1.5270 H   0  0  0  0  0  0  0  0  0  0  0  0
   -3.8900   -2.5750    1.9380 C   0  0  0  0  0  0  0  0  0  0  0  0
   -4.3520   -2.7930    2.9060 H   0  0  0  0  0  0  0  0  0  0  0  0
   -2.8040   -2.6540    2.0630 H   0  0  0  0  0  0  0  0  0  0  0  0
   -4.2560   -3.3190    1.2250 H   0  0  0  0  0  0  0  0  0  0  0  0
   -2.4280   -2.8850   -1.8930 C   0  0  0  0  0  0  0  0  0  0  0  0
   -2.8100   -3.8980   -2.0490 H   0  0  0  0  0  0  0  0  0  0  0  0
   -1.3450   -2.9570   -1.7500 H   0  0  0  0  0  0  0  0  0  0  0  0
   -2.6730   -2.2960   -2.7830 H   0  0  0  0  0  0  0  0  0  0  0  0
    3.5130    2.1920    2.0380 C   0  0  0  0  0  0  0  0  0  0  0  0
    4.1220    2.3990    2.9230 H   0  0  0  0  0  0  0  0  0  0  0  0
    2.4610    2.2560    2.3360 H   0  0  0  0  0  0  0  0  0  0  0  0
    3.7590    2.9450    1.2820 H   0  0  0  0  0  0  0  0  0  0  0  0
    4.7310   -2.9040    0.5030 C   0  0  0  0  0  0  0  0  0  0  0  0
    5.4890   -3.2640    1.2050 H   0  0  0  0  0  0  0  0  0  0  0  0
    5.1630   -2.9460   -0.5030 H   0  0  0  0  0  0  0  0  0  0  0  0
    3.8600   -3.5620    0.5890 H   0  0  0  0  0  0  0  0  0  0  0  0
  1  2  1  0  0  0  0
  1  3  2  0  0  0  0
  1  6  1  0  0  0  0
  2  5  2  0  0  0  0
  2 12  1  0  0  0  0
  3  4  1  0  0  0  0
  3  7  1  0  0  0  0
  5 21  1  0  0  0  0
  6  8  2  0  0  0  0
  6 30  1  0  0  0  0
  7 10  2  0  0  0  0
  7 26  1  0  0  0  0
  8  9  1  0  0  0  0
  8 10  1  0  0  0  0
 10 27  1  0  0  0  0
 11 15  2  0  0  0  0
 11 16  1  0  0  0  0
 11 28  1  0  0  0  0
 12 13  1  0  0  0  0
 12 14  1  0  0  0  0
 12 18  1  0  0  0  0
 15 19  1  0  0  0  0
 15 29  1  0  0  0  0
 16 17  1  0  0  0  0
 16 18  2  0  0  0  0
 18 24  1  0  0  0  0
 19 20  1  0  0  0  0
 19 24  2  0  0  0  0
 21 22  1  0  0  0  0
 21 23  1  0  0  0  0
 21 30  1  0  0  0  0
 24 25  1  0  0  0  0
 26 37  1  0  0  0  0
 27 33  1  0  0  0  0
 28 41  1  0  0  0  0
 29 45  1  0  0  0  0
 30 31  1  0  0  0  0
 30 32  1  0  0  0  0
 33 34  1  0  0  0  0
 33 35  1  0  0  0  0
 33 36  1  0  0  0  0
 37 38  1  0  0  0  0
 37 39  1  0  0  0  0
 37 40  1  0  0  0  0
 41 42  1  0  0  0  0
 41 43  1  0  0  0  0
 41 44  1  0  0  0  0
 45 46  1  0  0  0  0
 45 47  1  0  0  0  0
 45 48  1  0  0  0  0
M  END
>  <IDNUMBER>
AK-967/37080014

>  <NAME>
Laudanosine, derivative of

>  <ADD_INFO>
http://www.specs.net/enter.php?specsid=AK-967/37080014

>  <H_ACCEPTORS>
1

>  <H_DONORS>
0

>  <ROTATABLE_BONDS>
6

>  <LOGP>
5.4899998

>  <LOGS>
-6.3800001

>  <TPSA>
49.279999

>  <PRICE>
N06

>  <SALTDATA>
HCl

$$$$
AK-968/36936068
  MOE2011           3D

 48 50  0  0  1  0  0  0  0  0999 V2000
   -3.5960   -0.7280   -0.0990 N   0  3  3  0  0  0  0  0  0  0  0  0
   -3.6180   -0.8220   -1.1250 H   0  0  0  0  0  0  0  0  0  0  0  0
    1.7740    0.8730    0.5990 C   0  0  0  0  0  0  0  0  0  0  0  0
   -2.6840    0.4420    0.2500 C   0  0  3  0  0  0  0  0  0  0  0  0
   -1.2080    0.1130   -0.0820 C   0  0  1  0  0  0  0  0  0  0  0  0
    1.0090   -0.1960    0.9390 O   0  0  0  0  0  0  0  0  0  0  0  0
    3.1820    0.4550    0.3680 C   0  0  0  0  0  0  0  0  0  0  0  0
   -0.3740    0.0790    1.2140 C   0  0  0  0  0  0  0  0  0  0  0  0
   -0.7250   -0.7150    1.8830 H   0  0  0  0  0  0  0  0  0  0  0  0
   -0.4700    1.0190    1.7720 H   0  0  0  0  0  0  0  0  0  0  0  0
    1.3830    2.0240    0.4880 O   0  0  0  0  0  0  0  0  0  0  0  0
    3.5890   -0.8810    0.4430 C   0  0  0  0  0  0  0  0  0  0  0  0
    2.8850   -1.6760    0.6750 H   0  0  0  0  0  0  0  0  0  0  0  0
    4.1270    1.4430    0.0640 C   0  0  0  0  0  0  0  0  0  0  0  0
    3.8320    2.4890    0.0010 H   0  0  0  0  0  0  0  0  0  0  0  0
    5.8730   -0.2320   -0.0850 C   0  0  0  0  0  0  0  0  0  0  0  0
    5.4670    1.1010   -0.1610 C   0  0  0  0  0  0  0  0  0  0  0  0
    6.1650    1.9000   -0.3920 H   0  0  0  0  0  0  0  0  0  0  0  0
    4.9280   -1.2170    0.2170 C   0  0  0  0  0  0  0  0  0  0  0  0
    5.2370   -2.2580    0.2770 H   0  0  0  0  0  0  0  0  0  0  0  0
   -3.0700   -2.0290    0.4460 C   0  0  0  0  0  0  0  0  0  0  0  0
   -2.9500   -1.9060    1.5280 H   0  0  0  0  0  0  0  0  0  0  0  0
   -3.8180   -2.8070    0.2570 H   0  0  0  0  0  0  0  0  0  0  0  0
   -5.0240   -0.4690    0.3250 C   0  0  0  0  0  0  0  0  0  0  0  0
   -5.6150   -1.3510    0.0570 H   0  0  0  0  0  0  0  0  0  0  0  0
   -5.0320   -0.3380    1.4130 H   0  0  0  0  0  0  0  0  0  0  0  0
    7.1440   -0.6990   -0.2800 O   0  0  0  0  0  0  0  0  0  0  0  0
   -1.7530   -2.3770   -0.2370 C   0  0  0  0  0  0  0  0  0  0  0  0
   -1.0860   -2.8430    0.4990 H   0  0  0  0  0  0  0  0  0  0  0  0
   -1.9280   -3.1420   -1.0040 H   0  0  0  0  0  0  0  0  0  0  0  0
   -1.0590   -1.1840   -0.8920 C   0  0  0  0  0  0  0  0  0  0  0  0
   -1.4970   -1.0250   -1.8860 H   0  0  0  0  0  0  0  0  0  0  0  0
   -0.0050   -1.4240   -1.0710 H   0  0  0  0  0  0  0  0  0  0  0  0
   -3.1890    1.6680   -0.5210 C   0  0  0  0  0  0  0  0  0  0  0  0
   -2.5740    2.5420   -0.2730 H   0  0  0  0  0  0  0  0  0  0  0  0
   -3.0880    1.5030   -1.6010 H   0  0  0  0  0  0  0  0  0  0  0  0
    8.1470    0.2660   -0.5740 C   0  0  0  0  0  0  0  0  0  0  0  0
    9.0960   -0.2650   -0.6950 H   0  0  0  0  0  0  0  0  0  0  0  0
    8.2650    0.9760    0.2510 H   0  0  0  0  0  0  0  0  0  0  0  0
    7.9320    0.7830   -1.5150 H   0  0  0  0  0  0  0  0  0  0  0  0
   -5.5430    0.7610   -0.4070 C   0  0  0  0  0  0  0  0  0  0  0  0
   -5.6060    0.5470   -1.4810 H   0  0  0  0  0  0  0  0  0  0  0  0
   -6.5600    0.9880   -0.0680 H   0  0  0  0  0  0  0  0  0  0  0  0
   -4.6470    1.9760   -0.1880 C   0  0  0  0  0  0  0  0  0  0  0  0
   -4.7210    2.2980    0.8580 H   0  0  0  0  0  0  0  0  0  0  0  0
   -4.9990    2.8110   -0.8040 H   0  0  0  0  0  0  0  0  0  0  0  0
   -2.8090    0.6160    1.3270 H   0  0  0  0  0  0  0  0  0  0  0  0
   -0.7890    0.9130   -0.7060 H   0  0  0  0  0  0  0  0  0  0  0  0
  1  2  1  0  0  0  0
  1  4  1  0  0  0  0
  1 21  1  0  0  0  0
  1 24  1  0  0  0  0
  3  6  1  0  0  0  0
  3  7  1  0  0  0  0
  3 11  2  0  0  0  0
  4  5  1  0  0  0  0
  4 34  1  0  0  0  0
  4 47  1  0  0  0  0
  5  8  1  0  0  0  0
  5 31  1  0  0  0  0
  5 48  1  0  0  0  0
  6  8  1  0  0  0  0
  7 12  2  0  0  0  0
  7 14  1  0  0  0  0
  8  9  1  0  0  0  0
  8 10  1  0  0  0  0
 12 13  1  0  0  0  0
 12 19  1  0  0  0  0
 14 15  1  0  0  0  0
 14 17  2  0  0  0  0
 16 17  1  0  0  0  0
 16 19  2  0  0  0  0
 16 27  1  0  0  0  0
 17 18  1  0  0  0  0
 19 20  1  0  0  0  0
 21 22  1  0  0  0  0
 21 23  1  0  0  0  0
 21 28  1  0  0  0  0
 24 25  1  0  0  0  0
 24 26  1  0  0  0  0
 24 41  1  0  0  0  0
 27 37  1  0  0  0  0
 28 29  1  0  0  0  0
 28 30  1  0  0  0  0
 28 31  1  0  0  0  0
 31 32  1  0  0  0  0
 31 33  1  0  0  0  0
 34 35  1  0  0  0  0
 34 36  1  0  0  0  0
 34 44  1  0  0  0  0
 37 38  1  0  0  0  0
 37 39  1  0  0  0  0
 37 40  1  0  0  0  0
 41 42  1  0  0  0  0
 41 43  1  0  0  0  0
 41 44  1  0  0  0  0
 44 45  1  0  0  0  0
 44 46  1  0  0  0  0
M  CHG  1   1   1
M  END
>  <IDNUMBER>
AK-968/36936068

>  <NAME>
O-4-Methoxybenzoylepilupinine hydrochloride

>  <ADD_INFO>
http://www.specs.net/enter.php?specsid=AK-968/36936068

>  <H_ACCEPTORS>
3

>  <H_DONORS>
0

>  <ROTATABLE_BONDS>
5

>  <LOGP>
4.1799998

>  <LOGS>
-3.98

>  <TPSA>
38.77

>  <PRICE>
N07

>  <SALTDATA>
HCl

$$$$
AK-968/37055024
  MOE2011           3D

 44 46  0  0  1  0  0  0  0  0999 V2000
   -2.5040    0.6290    0.3760 N   0  3  3  0  0  0  0  0  0  0  0  0
   -2.3410    0.3710    1.3590 H   0  0  0  0  0  0  0  0  0  0  0  0
    2.3920    0.1930    0.7460 C   0  0  0  0  0  0  0  0  0  0  0  0
   -2.1040   -0.5670   -0.4730 C   0  0  1  0  0  0  0  0  0  0  0  0
   -0.5840   -0.5890   -0.7270 C   0  0  2  0  0  0  0  0  0  0  0  0
    1.6640   -0.8370    0.2420 O   0  0  0  0  0  0  0  0  0  0  0  0
    3.8340    0.0200    0.4260 C   0  0  0  0  0  0  0  0  0  0  0  0
    0.2570   -0.8410    0.5410 C   0  0  0  0  0  0  0  0  0  0  0  0
    0.0510   -1.8440    0.9290 H   0  0  0  0  0  0  0  0  0  0  0  0
    0.0080   -0.1460    1.3470 H   0  0  0  0  0  0  0  0  0  0  0  0
    1.9460    1.1480    1.3630 O   0  0  0  0  0  0  0  0  0  0  0  0
    4.7280    1.0200    0.8340 C   0  0  0  0  0  0  0  0  0  0  0  0
    4.3700    1.8980    1.3700 H   0  0  0  0  0  0  0  0  0  0  0  0
    4.3210   -1.1020   -0.2590 C   0  0  0  0  0  0  0  0  0  0  0  0
    3.6540   -1.8970   -0.5870 H   0  0  0  0  0  0  0  0  0  0  0  0
    6.5670   -0.2180   -0.1240 C   0  0  0  0  0  0  0  0  0  0  0  0
    5.6880   -1.2190   -0.5330 C   0  0  0  0  0  0  0  0  0  0  0  0
    6.0570   -2.0930   -1.0650 H   0  0  0  0  0  0  0  0  0  0  0  0
    6.0930    0.9020    0.5590 C   0  0  0  0  0  0  0  0  0  0  0  0
    6.7780    1.6830    0.8790 H   0  0  0  0  0  0  0  0  0  0  0  0
    8.2480   -0.3650   -0.4620 Cl  0  0  0  0  0  0  0  0  0  0  0  0
   -1.6850    1.8860    0.1550 C   0  0  0  0  0  0  0  0  0  0  0  0
   -2.3300    2.7540    0.3280 H   0  0  0  0  0  0  0  0  0  0  0  0
   -0.9020    1.8940    0.9200 H   0  0  0  0  0  0  0  0  0  0  0  0
   -3.9960    0.8970    0.2780 C   0  0  0  0  0  0  0  0  0  0  0  0
   -4.2680    1.4440    1.1870 H   0  0  0  0  0  0  0  0  0  0  0  0
   -4.1730    1.5350   -0.5950 H   0  0  0  0  0  0  0  0  0  0  0  0
   -1.0910    1.8930   -1.2390 C   0  0  0  0  0  0  0  0  0  0  0  0
   -1.9010    1.8960   -1.9800 H   0  0  0  0  0  0  0  0  0  0  0  0
   -0.5270    2.8190   -1.4020 H   0  0  0  0  0  0  0  0  0  0  0  0
   -0.1770    0.6920   -1.4930 C   0  0  0  0  0  0  0  0  0  0  0  0
    0.8580    0.9760   -1.2830 H   0  0  0  0  0  0  0  0  0  0  0  0
   -0.2010    0.4810   -2.5700 H   0  0  0  0  0  0  0  0  0  0  0  0
   -2.6910   -1.8260    0.1810 C   0  0  0  0  0  0  0  0  0  0  0  0
   -2.7560   -2.6130   -0.5810 H   0  0  0  0  0  0  0  0  0  0  0  0
   -2.0450   -2.2230    0.9690 H   0  0  0  0  0  0  0  0  0  0  0  0
   -4.7910   -0.4040    0.1610 C   0  0  0  0  0  0  0  0  0  0  0  0
   -5.7780   -0.2690    0.6170 H   0  0  0  0  0  0  0  0  0  0  0  0
   -4.9740   -0.6210   -0.8990 H   0  0  0  0  0  0  0  0  0  0  0  0
   -4.0780   -1.5930    0.7930 C   0  0  0  0  0  0  0  0  0  0  0  0
   -4.6850   -2.5000    0.6890 H   0  0  0  0  0  0  0  0  0  0  0  0
   -3.9710   -1.4120    1.8700 H   0  0  0  0  0  0  0  0  0  0  0  0
   -2.5990   -0.4230   -1.4450 H   0  0  0  0  0  0  0  0  0  0  0  0
   -0.3620   -1.4270   -1.4020 H   0  0  0  0  0  0  0  0  0  0  0  0
  1  2  1  0  0  0  0
  1  4  1  0  0  0  0
  1 22  1  0  0  0  0
  1 25  1  0  0  0  0
  3  6  1  0  0  0  0
  3  7  1  0  0  0  0
  3 11  2  0  0  0  0
  4  5  1  0  0  0  0
  4 34  1  0  0  0  0
  4 43  1  0  0  0  0
  5  8  1  0  0  0  0
  5 31  1  0  0  0  0
  5 44  1  0  0  0  0
  6  8  1  0  0  0  0
  7 12  2  0  0  0  0
  7 14  1  0  0  0  0
  8  9  1  0  0  0  0
  8 10  1  0  0  0  0
 12 13  1  0  0  0  0
 12 19  1  0  0  0  0
 14 15  1  0  0  0  0
 14 17  2  0  0  0  0
 16 17  1  0  0  0  0
 16 19  2  0  0  0  0
 16 21  1  0  0  0  0
 17 18  1  0  0  0  0
 19 20  1  0  0  0  0
 22 23  1  0  0  0  0
 22 24  1  0  0  0  0
 22 28  1  0  0  0  0
 25 26  1  0  0  0  0
 25 27  1  0  0  0  0
 25 37  1  0  0  0  0
 28 29  1  0  0  0  0
 28 30  1  0  0  0  0
 28 31  1  0  0  0  0
 31 32  1  0  0  0  0
 31 33  1  0  0  0  0
 34 35  1  0  0  0  0
 34 36  1  0  0  0  0
 34 40  1  0  0  0  0
 37 38  1  0  0  0  0
 37 39  1  0  0  0  0
 37 40  1  0  0  0  0
 40 41  1  0  0  0  0
 40 42  1  0  0  0  0
M  CHG  1   1   1
M  END
>  <IDNUMBER>
AK-968/37055024

>  <NAME>
octahydro-2H-quinolizin-1-ylmethyl 4-chlorobenzoate

>  <ADD_INFO>
http://www.specs.net/enter.php?specsid=AK-968/37055024

>  <H_ACCEPTORS>
3

>  <H_DONORS>
0

>  <ROTATABLE_BONDS>
4

>  <LOGP>
4.7399998

>  <LOGS>
-4.4899998

>  <TPSA>
29.540001

>  <PRICE>
N08

>  <SALTDATA>
HCl

$$$$
AL-641/21118013
  MOE2011           3D

 36 38  0  0  0  0  0  0  0  0999 V2000
    1.4960   -0.2150   -0.0630 C   0  0  0  0  0  0  0  0  0  0  0  0
    0.4900    0.7430   -0.0250 C   0  0  0  0  0  0  0  0  0  0  0  0
    0.9480   -1.4640   -0.1490 O   0  0  0  0  0  0  0  0  0  0  0  0
   -0.7440    0.0210   -0.1140 C   0  0  0  0  0  0  0  0  0  0  0  0
   -0.4010   -1.3200   -0.1860 C   0  0  0  0  0  0  0  0  0  0  0  0
    2.9570   -0.1880   -0.0380 C   0  0  0  0  0  0  0  0  0  0  0  0
   -2.1130    0.3610   -0.1420 C   0  0  0  0  0  0  0  0  0  0  0  0
   -2.4070    1.4050   -0.1070 H   0  0  0  0  0  0  0  0  0  0  0  0
   -1.3190   -2.3610   -0.2870 C   0  0  0  0  0  0  0  0  0  0  0  0
   -1.0000   -3.3940   -0.3450 H   0  0  0  0  0  0  0  0  0  0  0  0
   -4.5200   -0.3610   -0.2930 C   0  0  0  0  0  0  0  0  0  0  0  0
   -5.1110   -1.0140   -0.9320 H   0  0  0  0  0  0  0  0  0  0  0  0
    3.6730    0.8700   -0.6170 C   0  0  0  0  0  0  0  0  0  0  0  0
    3.1560    1.6860   -1.1150 H   0  0  0  0  0  0  0  0  0  0  0  0
    3.6780   -1.2330    0.5650 C   0  0  0  0  0  0  0  0  0  0  0  0
    3.1500   -2.0680    1.0200 H   0  0  0  0  0  0  0  0  0  0  0  0
   -5.1200    0.6250    0.3920 C   0  0  0  0  0  0  0  0  0  0  0  0
   -4.5460    1.2670    1.0570 H   0  0  0  0  0  0  0  0  0  0  0  0
   -3.0800   -0.6600   -0.2290 C   0  0  0  0  0  0  0  0  0  0  0  0
    0.6370    2.2160    0.0960 C   0  0  0  0  0  0  0  0  0  0  0  0
   -0.2680    2.6730    0.5100 H   0  0  0  0  0  0  0  0  0  0  0  0
    0.8240    2.6610   -0.8860 H   0  0  0  0  0  0  0  0  0  0  0  0
    1.4660    2.4760    0.7620 H   0  0  0  0  0  0  0  0  0  0  0  0
    5.7610   -0.1550    0.0210 C   0  0  0  0  0  0  0  0  0  0  0  0
   -2.6710   -2.0000   -0.3130 C   0  0  0  0  0  0  0  0  0  0  0  0
   -3.4140   -2.7920   -0.3930 H   0  0  0  0  0  0  0  0  0  0  0  0
    5.0700    0.8870   -0.5860 C   0  0  0  0  0  0  0  0  0  0  0  0
    5.6160    1.7090   -1.0400 H   0  0  0  0  0  0  0  0  0  0  0  0
    5.0760   -1.2190    0.5980 C   0  0  0  0  0  0  0  0  0  0  0  0
    5.6040   -2.0400    1.0730 H   0  0  0  0  0  0  0  0  0  0  0  0
    7.1240   -0.0970    0.0290 O   0  0  0  0  0  0  0  0  0  0  0  0
    7.4660   -0.8850    0.4820 H   0  0  0  0  0  0  0  0  0  0  0  0
   -6.5860    0.9070    0.3220 C   0  0  0  0  0  0  0  0  0  0  0  0
   -6.7510    1.9290   -0.0340 H   0  0  0  0  0  0  0  0  0  0  0  0
   -7.0310    0.8130    1.3180 H   0  0  0  0  0  0  0  0  0  0  0  0
   -7.1090    0.2220   -0.3520 H   0  0  0  0  0  0  0  0  0  0  0  0
  1  2  2  0  0  0  0
  1  3  1  0  0  0  0
  1  6  1  0  0  0  0
  2  4  1  0  0  0  0
  2 20  1  0  0  0  0
  3  5  1  0  0  0  0
  4  5  2  0  0  0  0
  4  7  1  0  0  0  0
  5  9  1  0  0  0  0
  6 13  2  0  0  0  0
  6 15  1  0  0  0  0
  7  8  1  0  0  0  0
  7 19  2  0  0  0  0
  9 10  1  0  0  0  0
  9 25  2  0  0  0  0
 11 12  1  0  0  0  0
 11 17  2  0  0  0  0
 11 19  1  0  0  0  0
 13 14  1  0  0  0  0
 13 27  1  0  0  0  0
 15 16  1  0  0  0  0
 15 29  2  0  0  0  0
 17 18  1  0  0  0  0
 17 33  1  0  0  0  0
 19 25  1  0  0  0  0
 20 21  1  0  0  0  0
 20 22  1  0  0  0  0
 20 23  1  0  0  0  0
 24 27  2  0  0  0  0
 24 29  1  0  0  0  0
 24 31  1  0  0  0  0
 25 26  1  0  0  0  0
 27 28  1  0  0  0  0
 29 30  1  0  0  0  0
 31 32  1  0  0  0  0
 33 34  1  0  0  0  0
 33 35  1  0  0  0  0
 33 36  1  0  0  0  0
M  END
>  <IDNUMBER>
AL-641/21118013

>  <NAME>
Eupomatenoid 6

>  <ADD_INFO>
http://www.specs.net/enter.php?specsid=AL-641/21118013

>  <H_ACCEPTORS>
0

>  <H_DONORS>
1

>  <ROTATABLE_BONDS>
2

>  <LOGP>
5.6799998

>  <LOGS>
-5.4000001

>  <TPSA>
33.369999

>  <PRICE>
N07

$$$$
AL-968/20304013
  MOE2011           3D

 22 22  0  0  0  0  0  0  0  0999 V2000
   -1.1560    0.2480    0.1020 C   0  0  0  0  0  0  0  0  0  0  0  0
   -0.6110   -1.0350    0.1990 C   0  0  0  0  0  0  0  0  0  0  0  0
    0.7760   -1.2120    0.1920 C   0  0  0  0  0  0  0  0  0  0  0  0
    1.2120   -2.2050    0.2650 H   0  0  0  0  0  0  0  0  0  0  0  0
   -0.2920    1.3500    0.0240 C   0  0  0  0  0  0  0  0  0  0  0  0
   -0.6960    2.3590   -0.0370 H   0  0  0  0  0  0  0  0  0  0  0  0
   -2.6180    0.5270    0.0960 C   0  0  0  0  0  0  0  0  0  0  0  0
   -3.0250    1.6040    0.5290 O   0  0  0  0  0  0  0  0  0  0  0  0
    1.6350   -0.1110    0.1000 C   0  0  0  0  0  0  0  0  0  0  0  0
   -1.4200   -2.1270    0.3320 O   0  0  0  0  0  0  0  0  0  0  0  0
   -0.8740   -2.9270    0.4200 H   0  0  0  0  0  0  0  0  0  0  0  0
    1.0950    1.1720    0.0200 C   0  0  0  0  0  0  0  0  0  0  0  0
    1.7220    2.0560   -0.0460 H   0  0  0  0  0  0  0  0  0  0  0  0
    2.9660   -0.4250    0.1050 O   0  0  0  0  0  0  0  0  0  0  0  0
   -3.5730   -0.4970   -0.4590 C   0  0  0  0  0  0  0  0  0  0  0  0
   -4.4560    0.0190   -0.8500 H   0  0  0  0  0  0  0  0  0  0  0  0
   -3.1260   -1.0420   -1.2940 H   0  0  0  0  0  0  0  0  0  0  0  0
   -3.8850   -1.1840    0.3310 H   0  0  0  0  0  0  0  0  0  0  0  0
    3.8830    0.6580    0.0110 C   0  0  0  0  0  0  0  0  0  0  0  0
    4.8950    0.2420    0.0250 H   0  0  0  0  0  0  0  0  0  0  0  0
    3.7880    1.3310    0.8690 H   0  0  0  0  0  0  0  0  0  0  0  0
    3.7590    1.1990   -0.9330 H   0  0  0  0  0  0  0  0  0  0  0  0
  1  2  2  0  0  0  0
  1  5  1  0  0  0  0
  1  7  1  0  0  0  0
  2  3  1  0  0  0  0
  2 10  1  0  0  0  0
  3  4  1  0  0  0  0
  3  9  2  0  0  0  0
  5  6  1  0  0  0  0
  5 12  2  0  0  0  0
  7  8  2  0  0  0  0
  7 15  1  0  0  0  0
  9 12  1  0  0  0  0
  9 14  1  0  0  0  0
 10 11  1  0  0  0  0
 12 13  1  0  0  0  0
 14 19  1  0  0  0  0
 15 16  1  0  0  0  0
 15 17  1  0  0  0  0
 15 18  1  0  0  0  0
 19 20  1  0  0  0  0
 19 21  1  0  0  0  0
 19 22  1  0  0  0  0
M  END
>  <IDNUMBER>
AL-968/20304013

>  <NAME>
Paeonol (Peonol)

>  <ADD_INFO>
http://www.specs.net/enter.php?specsid=AL-968/20304013

>  <H_ACCEPTORS>
1

>  <H_DONORS>
1

>  <ROTATABLE_BONDS>
2

>  <LOGP>
1.98

>  <LOGS>
-1.52

>  <TPSA>
46.529999

>  <PRICE>
N05

$$$$
AM-331/20711025
  MOE2011           3D

 24 26  0  0  0  0  0  0  0  0999 V2000
    1.5920    0.1170   -0.2490 C   0  0  0  0  0  0  0  0  0  0  0  0
    1.4170    1.4780   -0.0660 C   0  0  0  0  0  0  0  0  0  0  0  0
    0.2660    2.1530    0.0510 N   0  0  0  0  0  0  0  0  0  0  0  0
    0.4270   -0.6600   -0.3080 C   0  0  0  0  0  0  0  0  0  0  0  0
   -0.8250   -0.0100   -0.2330 C   0  0  0  0  0  0  0  0  0  0  0  0
   -0.8350    1.3940   -0.0440 C   0  0  0  0  0  0  0  0  0  0  0  0
    2.6190    2.1130   -0.0190 O   0  0  0  0  0  0  0  0  0  0  0  0
    2.9950   -0.0850   -0.3310 C   0  0  0  0  0  0  0  0  0  0  0  0
    3.5180   -1.0180   -0.4810 H   0  0  0  0  0  0  0  0  0  0  0  0
    3.5710    1.1570   -0.1820 C   0  0  0  0  0  0  0  0  0  0  0  0
    4.5930    1.5110   -0.1710 H   0  0  0  0  0  0  0  0  0  0  0  0
    0.4850   -2.0210   -0.5210 O   0  0  0  0  0  0  0  0  0  0  0  0
   -2.0490   -0.7060   -0.3340 C   0  0  0  0  0  0  0  0  0  0  0  0
   -2.0570   -1.7830   -0.4870 H   0  0  0  0  0  0  0  0  0  0  0  0
   -2.0630    2.0350    0.0450 C   0  0  0  0  0  0  0  0  0  0  0  0
   -2.0860    3.1130    0.1910 H   0  0  0  0  0  0  0  0  0  0  0  0
    0.7890   -2.6980    0.7000 C   0  0  0  0  0  0  0  0  0  0  0  0
    0.6800   -3.7720    0.5230 H   0  0  0  0  0  0  0  0  0  0  0  0
    0.0950   -2.4140    1.4990 H   0  0  0  0  0  0  0  0  0  0  0  0
    1.8220   -2.5090    1.0090 H   0  0  0  0  0  0  0  0  0  0  0  0
   -3.2650   -0.0330   -0.2430 C   0  0  0  0  0  0  0  0  0  0  0  0
   -4.2010   -0.5810   -0.3220 H   0  0  0  0  0  0  0  0  0  0  0  0
   -3.2720    1.3410   -0.0510 C   0  0  0  0  0  0  0  0  0  0  0  0
   -4.2140    1.8780    0.0220 H   0  0  0  0  0  0  0  0  0  0  0  0
  1  2  1  0  0  0  0
  1  4  2  0  0  0  0
  1  8  1  0  0  0  0
  2  3  2  0  0  0  0
  2  7  1  0  0  0  0
  3  6  1  0  0  0  0
  4  5  1  0  0  0  0
  4 12  1  0  0  0  0
  5  6  2  0  0  0  0
  5 13  1  0  0  0  0
  6 15  1  0  0  0  0
  7 10  1  0  0  0  0
  8  9  1  0  0  0  0
  8 10  2  0  0  0  0
 10 11  1  0  0  0  0
 12 17  1  0  0  0  0
 13 14  1  0  0  0  0
 13 21  2  0  0  0  0
 15 16  1  0  0  0  0
 15 23  2  0  0  0  0
 17 18  1  0  0  0  0
 17 19  1  0  0  0  0
 17 20  1  0  0  0  0
 21 22  1  0  0  0  0
 21 23  1  0  0  0  0
 23 24  1  0  0  0  0
M  END
>  <IDNUMBER>
AM-331/20711025

>  <NAME>
Dictamnine

>  <ADD_INFO>
http://www.specs.net/enter.php?specsid=AM-331/20711025

>  <H_ACCEPTORS>
1

>  <H_DONORS>
0

>  <ROTATABLE_BONDS>
1

>  <LOGP>
2.77

>  <LOGS>
-4.1300001

>  <TPSA>
35.259998

>  <PRICE>
N07

$$$$
AM-331/20714013
  MOE2011           3D

 19 19  0  0  0  0  0  0  0  0999 V2000
    3.0000    0.0870   -0.0010 C   0  0  0  0  0  0  0  0  0  0  0  0
    1.5640   -0.3920   -0.0010 C   0  0  0  0  0  0  0  0  0  0  0  0
    0.5010    0.5340   -0.0020 C   0  0  0  0  0  0  0  0  0  0  0  0
    0.7500    1.5920   -0.0030 H   0  0  0  0  0  0  0  0  0  0  0  0
   -0.8240    0.0970   -0.0020 C   0  0  0  0  0  0  0  0  0  0  0  0
   -1.0820   -1.2780   -0.0010 C   0  0  0  0  0  0  0  0  0  0  0  0
    3.9080   -0.8030    0.0040 O   0  0  0  0  0  0  0  0  0  0  0  0
    1.2670   -1.7670    0.0000 C   0  0  0  0  0  0  0  0  0  0  0  0
    2.0780   -2.4940    0.0000 H   0  0  0  0  0  0  0  0  0  0  0  0
   -0.0550   -2.2120   -0.0010 C   0  0  0  0  0  0  0  0  0  0  0  0
   -0.2780   -3.2730   -0.0010 H   0  0  0  0  0  0  0  0  0  0  0  0
    3.1890    1.3440   -0.0050 O   0  5  0  0  0  0  0  0  0  0  0  0
   -1.9440    0.8910   -0.0020 O   0  0  0  0  0  0  0  0  0  0  0  0
   -2.3770   -1.7250   -0.0010 O   0  0  0  0  0  0  0  0  0  0  0  0
   -2.9140   -0.9090   -0.0020 H   0  0  0  0  0  0  0  0  0  0  0  0
   -1.7180    2.2960    0.0040 C   0  0  0  0  0  0  0  0  0  0  0  0
   -2.6940    2.7910    0.0060 H   0  0  0  0  0  0  0  0  0  0  0  0
   -1.1860    2.6140   -0.9000 H   0  0  0  0  0  0  0  0  0  0  0  0
   -1.1860    2.6070    0.9090 H   0  0  0  0  0  0  0  0  0  0  0  0
  1  2  1  0  0  0  0
  1  7  2  0  0  0  0
  1 12  1  0  0  0  0
  2  3  2  0  0  0  0
  2  8  1  0  0  0  0
  3  4  1  0  0  0  0
  3  5  1  0  0  0  0
  5  6  2  0  0  0  0
  5 13  1  0  0  0  0
  6 10  1  0  0  0  0
  6 14  1  0  0  0  0
  8  9  1  0  0  0  0
  8 10  2  0  0  0  0
 10 11  1  0  0  0  0
 13 16  1  0  0  0  0
 14 15  1  0  0  0  0
 16 17  1  0  0  0  0
 16 18  1  0  0  0  0
 16 19  1  0  0  0  0
M  CHG  1  12  -1
M  END
>  <IDNUMBER>
AM-331/20714013

>  <NAME>
Vanillic acid

>  <ADD_INFO>
http://www.specs.net/enter.php?specsid=AM-331/20714013

>  <H_ACCEPTORS>
2

>  <H_DONORS>
2

>  <ROTATABLE_BONDS>
2

>  <LOGP>
1.4299999

>  <LOGS>
-1.65

>  <TPSA>
66.760002

>  <PRICE>
N06

$$$$
AM-573/20891002
  MOE2011           3D

 70 70  0  0  0  0  0  0  0  0999 V2000
   -5.2220    3.1400    0.5790 C   0  0  0  0  0  0  0  0  0  0  0  0
   -6.0230    0.9040   -0.9630 C   0  0  0  0  0  0  0  0  0  0  0  0
   -6.1900    2.3900    1.1480 C   0  0  0  0  0  0  0  0  0  0  0  0
   -5.0370    1.6410   -1.5220 C   0  0  0  0  0  0  0  0  0  0  0  0
   -4.7780    2.9760   -0.8390 C   0  0  0  0  0  0  0  0  0  0  0  0
   -6.8200    1.3660    0.2180 C   0  0  0  0  0  0  0  0  0  0  0  0
   -7.9360    0.8780    0.4150 O   0  0  0  0  0  0  0  0  0  0  0  0
   -4.1790    3.9060   -1.3860 O   0  0  0  0  0  0  0  0  0  0  0  0
   -6.6610    2.4360    2.3240 O   0  5  0  0  0  0  0  0  0  0  0  0
   -4.3100    1.3850   -2.5270 O   0  5  0  0  0  0  0  0  0  0  0  0
    4.7770    0.8810   -0.3240 C   0  0  0  0  0  0  0  0  0  0  0  0
    4.9480    1.8170   -0.8520 H   0  0  0  0  0  0  0  0  0  0  0  0
    5.3760    0.6780    0.8600 C   0  0  0  0  0  0  0  0  0  0  0  0
    5.1810   -0.2470    1.3990 H   0  0  0  0  0  0  0  0  0  0  0  0
   -6.4450   -0.4490   -1.5110 C   0  0  0  0  0  0  0  0  0  0  0  0
   -7.5290   -0.4470   -1.6830 H   0  0  0  0  0  0  0  0  0  0  0  0
   -6.0070   -0.6360   -2.4990 H   0  0  0  0  0  0  0  0  0  0  0  0
   -4.4980    4.2410    1.3120 C   0  0  0  0  0  0  0  0  0  0  0  0
   -3.4150    4.0810    1.2630 H   0  0  0  0  0  0  0  0  0  0  0  0
   -4.7630    4.3030    2.3720 H   0  0  0  0  0  0  0  0  0  0  0  0
   -4.7260    5.2140    0.8630 H   0  0  0  0  0  0  0  0  0  0  0  0
    3.8420   -0.0540   -1.0510 C   0  0  0  0  0  0  0  0  0  0  0  0
    2.8790    0.4610   -1.1500 H   0  0  0  0  0  0  0  0  0  0  0  0
    4.2360   -0.1870   -2.0670 H   0  0  0  0  0  0  0  0  0  0  0  0
    6.3120    1.6120    1.5830 C   0  0  0  0  0  0  0  0  0  0  0  0
    5.7630    2.0220    2.4410 H   0  0  0  0  0  0  0  0  0  0  0  0
    7.1270    1.0090    2.0020 H   0  0  0  0  0  0  0  0  0  0  0  0
   -6.0870   -1.6280   -0.5930 C   0  0  0  0  0  0  0  0  0  0  0  0
   -6.5900   -1.5200    0.3760 H   0  0  0  0  0  0  0  0  0  0  0  0
   -6.4820   -2.5460   -1.0470 H   0  0  0  0  0  0  0  0  0  0  0  0
    6.9280    2.7790    0.8010 C   0  0  0  0  0  0  0  0  0  0  0  0
    6.1440    3.3850    0.3320 H   0  0  0  0  0  0  0  0  0  0  0  0
    7.4340    3.4370    1.5190 H   0  0  0  0  0  0  0  0  0  0  0  0
    3.6260   -1.4350   -0.4230 C   0  0  0  0  0  0  0  0  0  0  0  0
    4.5980   -1.9220   -0.2740 H   0  0  0  0  0  0  0  0  0  0  0  0
    3.1720   -1.3320    0.5690 H   0  0  0  0  0  0  0  0  0  0  0  0
    7.9500    2.3240   -0.2440 C   0  0  0  0  0  0  0  0  0  0  0  0
    8.7510    1.7570    0.2450 H   0  0  0  0  0  0  0  0  0  0  0  0
    7.4860    1.6580   -0.9780 H   0  0  0  0  0  0  0  0  0  0  0  0
    1.3420   -1.8940   -1.5690 C   0  0  0  0  0  0  0  0  0  0  0  0
    1.3720   -0.9960   -2.1990 H   0  0  0  0  0  0  0  0  0  0  0  0
    0.8390   -2.6630   -2.1690 H   0  0  0  0  0  0  0  0  0  0  0  0
    2.7720   -2.3660   -1.2910 C   0  0  0  0  0  0  0  0  0  0  0  0
    3.2780   -2.5150   -2.2540 H   0  0  0  0  0  0  0  0  0  0  0  0
    2.7410   -3.3540   -0.8170 H   0  0  0  0  0  0  0  0  0  0  0  0
   -4.5790   -1.7850   -0.3710 C   0  0  0  0  0  0  0  0  0  0  0  0
   -4.0740   -1.8770   -1.3400 H   0  0  0  0  0  0  0  0  0  0  0  0
   -4.1870   -0.8880    0.1190 H   0  0  0  0  0  0  0  0  0  0  0  0
   -4.2670   -3.0120    0.4880 C   0  0  0  0  0  0  0  0  0  0  0  0
   -4.7340   -2.9050    1.4740 H   0  0  0  0  0  0  0  0  0  0  0  0
   -4.7130   -3.8990    0.0210 H   0  0  0  0  0  0  0  0  0  0  0  0
   -2.7650   -3.2660    0.6540 C   0  0  0  0  0  0  0  0  0  0  0  0
   -2.6340   -4.2280    1.1640 H   0  0  0  0  0  0  0  0  0  0  0  0
   -2.3090   -3.3650   -0.3380 H   0  0  0  0  0  0  0  0  0  0  0  0
   -2.0510   -2.1750    1.4570 C   0  0  0  0  0  0  0  0  0  0  0  0
   -2.0830   -1.2220    0.9190 H   0  0  0  0  0  0  0  0  0  0  0  0
   -2.5880   -2.0140    2.4000 H   0  0  0  0  0  0  0  0  0  0  0  0
   -0.5970   -2.5230    1.7940 C   0  0  0  0  0  0  0  0  0  0  0  0
   -0.1720   -1.7030    2.3870 H   0  0  0  0  0  0  0  0  0  0  0  0
   -0.5890   -3.4070    2.4440 H   0  0  0  0  0  0  0  0  0  0  0  0
    0.3190   -2.7980    0.5960 C   0  0  0  0  0  0  0  0  0  0  0  0
   -0.0490   -3.6620    0.0310 H   0  0  0  0  0  0  0  0  0  0  0  0
    1.3000   -3.0860    0.9940 H   0  0  0  0  0  0  0  0  0  0  0  0
    0.4830   -1.5950   -0.3360 C   0  0  0  0  0  0  0  0  0  0  0  0
    0.9030   -0.7490    0.2210 H   0  0  0  0  0  0  0  0  0  0  0  0
   -0.5000   -1.2700   -0.6960 H   0  0  0  0  0  0  0  0  0  0  0  0
    8.5590    3.5100   -0.9760 C   0  0  0  0  0  0  0  0  0  0  0  0
    9.0690    4.1830   -0.2790 H   0  0  0  0  0  0  0  0  0  0  0  0
    7.7890    4.0810   -1.5050 H   0  0  0  0  0  0  0  0  0  0  0  0
    9.2920    3.1660   -1.7120 H   0  0  0  0  0  0  0  0  0  0  0  0
  1  3  2  0  0  0  0
  1  5  1  0  0  0  0
  1 18  1  0  0  0  0
  2  4  2  0  0  0  0
  2  6  1  0  0  0  0
  2 15  1  0  0  0  0
  3  6  1  0  0  0  0
  3  9  1  0  0  0  0
  4  5  1  0  0  0  0
  4 10  1  0  0  0  0
  5  8  2  0  0  0  0
  6  7  2  0  0  0  0
 11 12  1  0  0  0  0
 11 13  2  0  0  0  0
 11 22  1  0  0  0  0
 13 14  1  0  0  0  0
 13 25  1  0  0  0  0
 15 16  1  0  0  0  0
 15 17  1  0  0  0  0
 15 28  1  0  0  0  0
 18 19  1  0  0  0  0
 18 20  1  0  0  0  0
 18 21  1  0  0  0  0
 22 23  1  0  0  0  0
 22 24  1  0  0  0  0
 22 34  1  0  0  0  0
 25 26  1  0  0  0  0
 25 27  1  0  0  0  0
 25 31  1  0  0  0  0
 28 29  1  0  0  0  0
 28 30  1  0  0  0  0
 28 46  1  0  0  0  0
 31 32  1  0  0  0  0
 31 33  1  0  0  0  0
 31 37  1  0  0  0  0
 34 35  1  0  0  0  0
 34 36  1  0  0  0  0
 34 43  1  0  0  0  0
 37 38  1  0  0  0  0
 37 39  1  0  0  0  0
 37 67  1  0  0  0  0
 40 41  1  0  0  0  0
 40 42  1  0  0  0  0
 40 43  1  0  0  0  0
 40 64  1  0  0  0  0
 43 44  1  0  0  0  0
 43 45  1  0  0  0  0
 46 47  1  0  0  0  0
 46 48  1  0  0  0  0
 46 49  1  0  0  0  0
 49 50  1  0  0  0  0
 49 51  1  0  0  0  0
 49 52  1  0  0  0  0
 52 53  1  0  0  0  0
 52 54  1  0  0  0  0
 52 55  1  0  0  0  0
 55 56  1  0  0  0  0
 55 57  1  0  0  0  0
 55 58  1  0  0  0  0
 58 59  1  0  0  0  0
 58 60  1  0  0  0  0
 58 61  1  0  0  0  0
 61 62  1  0  0  0  0
 61 63  1  0  0  0  0
 61 64  1  0  0  0  0
 64 65  1  0  0  0  0
 64 66  1  0  0  0  0
 67 68  1  0  0  0  0
 67 69  1  0  0  0  0
 67 70  1  0  0  0  0
M  CHG  1   9  -1
M  CHG  1  10  -1
M  END
>  <IDNUMBER>
AM-573/20891002

>  <NAME>
Maesaquinone

>  <ADD_INFO>
http://www.specs.net/enter.php?specsid=AM-573/20891002

>  <H_ACCEPTORS>
4

>  <H_DONORS>
2

>  <ROTATABLE_BONDS>
17

>  <LOGP>
10.17

>  <LOGS>
-10.43

>  <TPSA>
74.599998

>  <PRICE>
N04

>  <STEREOCHEM>
Cis-isomer

$$$$
AM-573/20891012
  MOE2011           3D

 78 78  0  0  0  0  0  0  0  0999 V2000
   -8.1850    1.7430    0.4320 C   0  0  0  0  0  0  0  0  0  0  0  0
   -6.5660   -0.6300    0.0890 C   0  0  0  0  0  0  0  0  0  0  0  0
   -7.2360    1.7630   -0.5160 C   0  0  0  0  0  0  0  0  0  0  0  0
   -7.5320   -0.6540    1.0220 C   0  0  0  0  0  0  0  0  0  0  0  0
   -8.4120    0.5290    1.2580 C   0  0  0  0  0  0  0  0  0  0  0  0
   -6.4230    0.5450   -0.8120 C   0  0  0  0  0  0  0  0  0  0  0  0
   -5.6610    0.5090   -1.7740 O   0  0  0  0  0  0  0  0  0  0  0  0
   -9.2860    0.5180    2.1200 O   0  0  0  0  0  0  0  0  0  0  0  0
   -7.6580   -1.7560    1.8580 O   0  0  0  0  0  0  0  0  0  0  0  0
   -7.0570    2.9020   -1.2900 O   0  0  0  0  0  0  0  0  0  0  0  0
    6.7850   -0.8400   -0.1380 C   0  0  0  0  0  0  0  0  0  0  0  0
    6.3740   -1.6250   -0.7710 H   0  0  0  0  0  0  0  0  0  0  0  0
    7.9930   -0.3480   -0.4580 C   0  0  0  0  0  0  0  0  0  0  0  0
    8.4920   -0.7620   -1.3330 H   0  0  0  0  0  0  0  0  0  0  0  0
   -5.6250   -1.7940   -0.1390 C   0  0  0  0  0  0  0  0  0  0  0  0
   -6.1750   -2.7320    0.0130 H   0  0  0  0  0  0  0  0  0  0  0  0
   -5.2970   -1.8420   -1.1840 H   0  0  0  0  0  0  0  0  0  0  0  0
   -9.0720    2.9130    0.7530 C   0  0  0  0  0  0  0  0  0  0  0  0
  -10.1230    2.6490    0.5940 H   0  0  0  0  0  0  0  0  0  0  0  0
   -8.8600    3.7910    0.1350 H   0  0  0  0  0  0  0  0  0  0  0  0
   -8.9430    3.2130    1.7980 H   0  0  0  0  0  0  0  0  0  0  0  0
    5.9330   -0.4420    1.0330 C   0  0  0  0  0  0  0  0  0  0  0  0
    5.4510   -1.3410    1.4350 H   0  0  0  0  0  0  0  0  0  0  0  0
    6.5580   -0.0670    1.8520 H   0  0  0  0  0  0  0  0  0  0  0  0
    8.7330    0.7540    0.2460 C   0  0  0  0  0  0  0  0  0  0  0  0
    9.0390    1.4840   -0.5110 H   0  0  0  0  0  0  0  0  0  0  0  0
    8.0840    1.2910    0.9450 H   0  0  0  0  0  0  0  0  0  0  0  0
   -8.9020   -2.4310    1.6750 C   0  0  0  0  0  0  0  0  0  0  0  0
   -8.8140   -3.4210    2.1330 H   0  0  0  0  0  0  0  0  0  0  0  0
   -9.1320   -2.5690    0.6120 H   0  0  0  0  0  0  0  0  0  0  0  0
   -9.7170   -1.9030    2.1770 H   0  0  0  0  0  0  0  0  0  0  0  0
   -5.7270    3.4130   -1.2210 C   0  0  0  0  0  0  0  0  0  0  0  0
   -5.7590    4.4650   -1.5200 H   0  0  0  0  0  0  0  0  0  0  0  0
   -5.0710    2.8900   -1.9220 H   0  0  0  0  0  0  0  0  0  0  0  0
   -5.3230    3.3620   -0.2040 H   0  0  0  0  0  0  0  0  0  0  0  0
   -4.4140   -1.7980    0.8060 C   0  0  0  0  0  0  0  0  0  0  0  0
   -4.7710   -1.7490    1.8430 H   0  0  0  0  0  0  0  0  0  0  0  0
   -3.9040   -2.7640    0.7170 H   0  0  0  0  0  0  0  0  0  0  0  0
    9.9590    0.2130    0.9850 C   0  0  0  0  0  0  0  0  0  0  0  0
    9.6480   -0.5880    1.6680 H   0  0  0  0  0  0  0  0  0  0  0  0
   10.6570   -0.2390    0.2690 H   0  0  0  0  0  0  0  0  0  0  0  0
    4.8810    0.6170    0.6910 C   0  0  0  0  0  0  0  0  0  0  0  0
    4.3220    0.8600    1.6040 H   0  0  0  0  0  0  0  0  0  0  0  0
    5.3930    1.5410    0.3920 H   0  0  0  0  0  0  0  0  0  0  0  0
   10.6890    1.2800    1.8050 C   0  0  0  0  0  0  0  0  0  0  0  0
   10.0050    1.7140    2.5440 H   0  0  0  0  0  0  0  0  0  0  0  0
   11.4960    0.7940    2.3660 H   0  0  0  0  0  0  0  0  0  0  0  0
    3.0060   -0.9570   -0.0580 C   0  0  0  0  0  0  0  0  0  0  0  0
    3.6370   -1.8310    0.1400 H   0  0  0  0  0  0  0  0  0  0  0  0
    2.4530   -0.7490    0.8660 H   0  0  0  0  0  0  0  0  0  0  0  0
    3.8870    0.2420   -0.4150 C   0  0  0  0  0  0  0  0  0  0  0  0
    3.2560    1.1190   -0.5950 H   0  0  0  0  0  0  0  0  0  0  0  0
    4.4210    0.0460   -1.3530 H   0  0  0  0  0  0  0  0  0  0  0  0
   -3.4080   -0.6610    0.5960 C   0  0  0  0  0  0  0  0  0  0  0  0
   -3.9220    0.3030    0.6850 H   0  0  0  0  0  0  0  0  0  0  0  0
   -2.6800   -0.6890    1.4170 H   0  0  0  0  0  0  0  0  0  0  0  0
   -2.6450   -0.6940   -0.7330 C   0  0  0  0  0  0  0  0  0  0  0  0
   -3.3410   -0.7110   -1.5780 H   0  0  0  0  0  0  0  0  0  0  0  0
   -2.0860    0.2450   -0.8100 H   0  0  0  0  0  0  0  0  0  0  0  0
   -1.6740   -1.8730   -0.8420 C   0  0  0  0  0  0  0  0  0  0  0  0
   -0.9630   -1.8470   -0.0080 H   0  0  0  0  0  0  0  0  0  0  0  0
   -2.2260   -2.8140   -0.7480 H   0  0  0  0  0  0  0  0  0  0  0  0
   -0.9160   -1.9180   -2.1730 C   0  0  0  0  0  0  0  0  0  0  0  0
   -0.2820   -2.8120   -2.1820 H   0  0  0  0  0  0  0  0  0  0  0  0
   -1.6410   -2.0590   -2.9860 H   0  0  0  0  0  0  0  0  0  0  0  0
   -0.0630   -0.6880   -2.5030 C   0  0  0  0  0  0  0  0  0  0  0  0
    0.4660   -0.8790   -3.4460 H   0  0  0  0  0  0  0  0  0  0  0  0
   -0.7240    0.1650   -2.7000 H   0  0  0  0  0  0  0  0  0  0  0  0
    0.9570   -0.2760   -1.4370 C   0  0  0  0  0  0  0  0  0  0  0  0
    0.4440   -0.0160   -0.5040 H   0  0  0  0  0  0  0  0  0  0  0  0
    1.4420    0.6420   -1.7890 H   0  0  0  0  0  0  0  0  0  0  0  0
    2.0200   -1.3430   -1.1680 C   0  0  0  0  0  0  0  0  0  0  0  0
    2.5720   -1.5570   -2.0920 H   0  0  0  0  0  0  0  0  0  0  0  0
    1.5350   -2.2780   -0.8660 H   0  0  0  0  0  0  0  0  0  0  0  0
   11.2890    2.3920    0.9580 C   0  0  0  0  0  0  0  0  0  0  0  0
   10.5120    2.9930    0.4760 H   0  0  0  0  0  0  0  0  0  0  0  0
   11.9450    1.9850    0.1820 H   0  0  0  0  0  0  0  0  0  0  0  0
   11.8830    3.0630    1.5880 H   0  0  0  0  0  0  0  0  0  0  0  0
  1  3  2  0  0  0  0
  1  5  1  0  0  0  0
  1 18  1  0  0  0  0
  2  4  2  0  0  0  0
  2  6  1  0  0  0  0
  2 15  1  0  0  0  0
  3  6  1  0  0  0  0
  3 10  1  0  0  0  0
  4  5  1  0  0  0  0
  4  9  1  0  0  0  0
  5  8  2  0  0  0  0
  6  7  2  0  0  0  0
  9 28  1  0  0  0  0
 10 32  1  0  0  0  0
 11 12  1  0  0  0  0
 11 13  2  0  0  0  0
 11 22  1  0  0  0  0
 13 14  1  0  0  0  0
 13 25  1  0  0  0  0
 15 16  1  0  0  0  0
 15 17  1  0  0  0  0
 15 36  1  0  0  0  0
 18 19  1  0  0  0  0
 18 20  1  0  0  0  0
 18 21  1  0  0  0  0
 22 23  1  0  0  0  0
 22 24  1  0  0  0  0
 22 42  1  0  0  0  0
 25 26  1  0  0  0  0
 25 27  1  0  0  0  0
 25 39  1  0  0  0  0
 28 29  1  0  0  0  0
 28 30  1  0  0  0  0
 28 31  1  0  0  0  0
 32 33  1  0  0  0  0
 32 34  1  0  0  0  0
 32 35  1  0  0  0  0
 36 37  1  0  0  0  0
 36 38  1  0  0  0  0
 36 54  1  0  0  0  0
 39 40  1  0  0  0  0
 39 41  1  0  0  0  0
 39 45  1  0  0  0  0
 42 43  1  0  0  0  0
 42 44  1  0  0  0  0
 42 51  1  0  0  0  0
 45 46  1  0  0  0  0
 45 47  1  0  0  0  0
 45 75  1  0  0  0  0
 48 49  1  0  0  0  0
 48 50  1  0  0  0  0
 48 51  1  0  0  0  0
 48 72  1  0  0  0  0
 51 52  1  0  0  0  0
 51 53  1  0  0  0  0
 54 55  1  0  0  0  0
 54 56  1  0  0  0  0
 54 57  1  0  0  0  0
 57 58  1  0  0  0  0
 57 59  1  0  0  0  0
 57 60  1  0  0  0  0
 60 61  1  0  0  0  0
 60 62  1  0  0  0  0
 60 63  1  0  0  0  0
 63 64  1  0  0  0  0
 63 65  1  0  0  0  0
 63 66  1  0  0  0  0
 66 67  1  0  0  0  0
 66 68  1  0  0  0  0
 66 69  1  0  0  0  0
 69 70  1  0  0  0  0
 69 71  1  0  0  0  0
 69 72  1  0  0  0  0
 72 73  1  0  0  0  0
 72 74  1  0  0  0  0
 75 76  1  0  0  0  0
 75 77  1  0  0  0  0
 75 78  1  0  0  0  0
M  END
>  <IDNUMBER>
AM-573/20891012

>  <NAME>
Maesaquinone Dimethyl ether

>  <ADD_INFO>
http://www.specs.net/enter.php?specsid=AM-573/20891012

>  <H_ACCEPTORS>
4

>  <H_DONORS>
0

>  <ROTATABLE_BONDS>
19

>  <LOGP>
10.23

>  <LOGS>
-11.19

>  <TPSA>
52.599998

>  <PRICE>
N04

>  <STEREOCHEM>
Cis-isomer

$$$$
AM-573/21176005
  MOE2011           3D

 51 51  0  0  0  0  0  0  0  0999 V2000
   -3.3510    1.1560    0.9200 C   0  0  0  0  0  0  0  0  0  0  0  0
   -5.6660    0.3780    0.2240 C   0  0  0  0  0  0  0  0  0  0  0  0
   -4.4280    0.1270    0.9890 C   0  0  0  0  0  0  0  0  0  0  0  0
   -3.4900    2.3390    0.2690 C   0  0  0  0  0  0  0  0  0  0  0  0
   -5.8470    1.5310   -0.4140 C   0  0  0  0  0  0  0  0  0  0  0  0
   -6.7650    1.7460   -0.9480 H   0  0  0  0  0  0  0  0  0  0  0  0
   -4.8220    2.5880   -0.4410 C   0  0  0  0  0  0  0  0  0  0  0  0
   -6.6940   -0.5910    0.2450 O   0  0  0  0  0  0  0  0  0  0  0  0
   -6.5430   -1.8000   -0.3730 C   0  0  0  0  0  0  0  0  0  0  0  0
   -4.3080   -0.9070    1.6410 O   0  0  0  0  0  0  0  0  0  0  0  0
   -5.1090    3.6190   -1.0510 O   0  0  0  0  0  0  0  0  0  0  0  0
   -7.3580   -2.7050   -0.2040 O   0  0  0  0  0  0  0  0  0  0  0  0
   -2.6500    3.2800    0.1630 O   0  5  0  0  0  0  0  0  0  0  0  0
   -2.0860    0.7830    1.6800 C   0  0  0  0  0  0  0  0  0  0  0  0
   -1.4580    1.6630    1.8680 H   0  0  0  0  0  0  0  0  0  0  0  0
   -2.3680    0.4270    2.6790 H   0  0  0  0  0  0  0  0  0  0  0  0
   -5.3780   -1.9580   -1.3110 C   0  0  0  0  0  0  0  0  0  0  0  0
   -4.4430   -2.0690   -0.7590 H   0  0  0  0  0  0  0  0  0  0  0  0
   -5.3290   -1.1230   -2.0140 H   0  0  0  0  0  0  0  0  0  0  0  0
   -5.5270   -2.8650   -1.9040 H   0  0  0  0  0  0  0  0  0  0  0  0
   -1.2270   -0.2920    0.9960 C   0  0  0  0  0  0  0  0  0  0  0  0
   -0.4120   -0.5460    1.6840 H   0  0  0  0  0  0  0  0  0  0  0  0
   -1.8080   -1.2100    0.8500 H   0  0  0  0  0  0  0  0  0  0  0  0
    5.8390    0.6540   -1.0130 C   0  0  0  0  0  0  0  0  0  0  0  0
    5.1490    0.0170   -1.5760 H   0  0  0  0  0  0  0  0  0  0  0  0
    6.1160    1.4770   -1.6840 H   0  0  0  0  0  0  0  0  0  0  0  0
    5.1400    1.2480    0.2120 C   0  0  0  0  0  0  0  0  0  0  0  0
    4.2940    1.8570   -0.1290 H   0  0  0  0  0  0  0  0  0  0  0  0
    5.8280    1.9440    0.7080 H   0  0  0  0  0  0  0  0  0  0  0  0
    1.4350   -1.3970   -0.2510 C   0  0  0  0  0  0  0  0  0  0  0  0
    1.1180   -1.9200    0.6580 H   0  0  0  0  0  0  0  0  0  0  0  0
    1.9530   -2.1430   -0.8680 H   0  0  0  0  0  0  0  0  0  0  0  0
    2.4150   -0.2780    0.1090 C   0  0  0  0  0  0  0  0  0  0  0  0
    2.6610    0.2900   -0.7950 H   0  0  0  0  0  0  0  0  0  0  0  0
    1.9460    0.4160    0.8160 H   0  0  0  0  0  0  0  0  0  0  0  0
    3.6940   -0.8430    0.7340 C   0  0  0  0  0  0  0  0  0  0  0  0
    3.4240   -1.4900    1.5790 H   0  0  0  0  0  0  0  0  0  0  0  0
    4.2080   -1.4840    0.0090 H   0  0  0  0  0  0  0  0  0  0  0  0
    4.6500    0.2360    1.2520 C   0  0  0  0  0  0  0  0  0  0  0  0
    4.1520    0.7890    2.0590 H   0  0  0  0  0  0  0  0  0  0  0  0
    5.5130   -0.2560    1.7160 H   0  0  0  0  0  0  0  0  0  0  0  0
   -0.6420    0.1610   -0.3450 C   0  0  0  0  0  0  0  0  0  0  0  0
   -1.4580    0.4190   -1.0310 H   0  0  0  0  0  0  0  0  0  0  0  0
   -0.0540    1.0750   -0.2050 H   0  0  0  0  0  0  0  0  0  0  0  0
    0.2110   -0.9110   -1.0320 C   0  0  0  0  0  0  0  0  0  0  0  0
   -0.4230   -1.7770   -1.2580 H   0  0  0  0  0  0  0  0  0  0  0  0
    0.5450   -0.5150   -1.9990 H   0  0  0  0  0  0  0  0  0  0  0  0
    7.0950   -0.1330   -0.6730 C   0  0  0  0  0  0  0  0  0  0  0  0
    6.8610   -1.0300   -0.0920 H   0  0  0  0  0  0  0  0  0  0  0  0
    7.7980    0.4780   -0.0980 H   0  0  0  0  0  0  0  0  0  0  0  0
    7.5970   -0.4540   -1.5910 H   0  0  0  0  0  0  0  0  0  0  0  0
  1  3  1  0  0  0  0
  1  4  2  0  0  0  0
  1 14  1  0  0  0  0
  2  3  1  0  0  0  0
  2  5  2  0  0  0  0
  2  8  1  0  0  0  0
  3 10  2  0  0  0  0
  4  7  1  0  0  0  0
  4 13  1  0  0  0  0
  5  6  1  0  0  0  0
  5  7  1  0  0  0  0
  7 11  2  0  0  0  0
  8  9  1  0  0  0  0
  9 12  2  0  0  0  0
  9 17  1  0  0  0  0
 14 15  1  0  0  0  0
 14 16  1  0  0  0  0
 14 21  1  0  0  0  0
 17 18  1  0  0  0  0
 17 19  1  0  0  0  0
 17 20  1  0  0  0  0
 21 22  1  0  0  0  0
 21 23  1  0  0  0  0
 21 42  1  0  0  0  0
 24 25  1  0  0  0  0
 24 26  1  0  0  0  0
 24 27  1  0  0  0  0
 24 48  1  0  0  0  0
 27 28  1  0  0  0  0
 27 29  1  0  0  0  0
 27 39  1  0  0  0  0
 30 31  1  0  0  0  0
 30 32  1  0  0  0  0
 30 33  1  0  0  0  0
 30 45  1  0  0  0  0
 33 34  1  0  0  0  0
 33 35  1  0  0  0  0
 33 36  1  0  0  0  0
 36 37  1  0  0  0  0
 36 38  1  0  0  0  0
 36 39  1  0  0  0  0
 39 40  1  0  0  0  0
 39 41  1  0  0  0  0
 42 43  1  0  0  0  0
 42 44  1  0  0  0  0
 42 45  1  0  0  0  0
 45 46  1  0  0  0  0
 45 47  1  0  0  0  0
 48 49  1  0  0  0  0
 48 50  1  0  0  0  0
 48 51  1  0  0  0  0
M  CHG  1  13  -1
M  END
>  <IDNUMBER>
AM-573/21176005

>  <NAME>
Embelin, derivative of

>  <ADD_INFO>
http://www.specs.net/enter.php?specsid=AM-573/21176005

>  <H_ACCEPTORS>
5

>  <H_DONORS>
1

>  <ROTATABLE_BONDS>
12

>  <LOGP>
4.9200001

>  <LOGS>
-5.8499999

>  <TPSA>
80.669998

>  <PRICE>
N05

$$$$
AM-721/20681006
  MOE2011           3D

 55 57  0  0  1  0  0  0  0  0999 V2000
   -0.4130   -0.1430   -0.3890 C   0  0  3  0  0  0  0  0  0  0  0  0
    3.8290    0.4280   -0.3390 C   0  0  0  0  0  0  0  0  0  0  0  0
   -1.7140   -0.6500    0.3380 C   0  0  1  0  0  0  0  0  0  0  0  0
   -2.9320    0.3630    0.4260 C   0  0  1  0  0  0  0  0  0  0  0  0
    4.3910   -0.3440    0.7970 C   0  0  0  0  0  0  0  0  0  0  0  0
    2.7750    0.0910   -1.1010 C   0  0  0  0  0  0  0  0  0  0  0  0
    2.4640    0.7880   -1.8770 H   0  0  0  0  0  0  0  0  0  0  0  0
    0.7810   -1.1530   -0.0390 C   0  0  1  0  0  0  0  0  0  0  0  0
    5.2400    0.4760    1.4810 O   0  0  0  0  0  0  0  0  0  0  0  0
    0.3050   -2.5800    0.2300 C   0  0  0  0  0  0  0  0  0  0  0  0
    1.9740   -1.1820   -1.0320 C   0  0  0  0  0  0  0  0  0  0  0  0
    2.6500   -2.0100   -0.7850 H   0  0  0  0  0  0  0  0  0  0  0  0
    1.6240   -1.4280   -2.0420 H   0  0  0  0  0  0  0  0  0  0  0  0
   -0.0080    1.2830    0.1250 C   0  0  0  0  0  0  0  0  0  0  0  0
    0.8090    1.2270    0.8540 H   0  0  0  0  0  0  0  0  0  0  0  0
    0.3990    1.8690   -0.7090 H   0  0  0  0  0  0  0  0  0  0  0  0
   -2.1280   -2.0670   -0.1380 C   0  0  0  0  0  0  0  0  0  0  0  0
   -2.7690   -2.5190    0.6280 H   0  0  0  0  0  0  0  0  0  0  0  0
   -2.7310   -2.0180   -1.0510 H   0  0  0  0  0  0  0  0  0  0  0  0
    4.6010    1.6920   -0.4310 C   0  0  3  0  0  0  0  0  0  0  0  0
   -2.4630    1.8190    0.1540 C   0  0  3  0  0  0  0  0  0  0  0  0
   -0.9630   -3.0140   -0.4350 C   0  0  0  0  0  0  0  0  0  0  0  0
   -0.7890   -3.0680   -1.5160 H   0  0  0  0  0  0  0  0  0  0  0  0
   -1.2500   -4.0310   -0.1400 H   0  0  0  0  0  0  0  0  0  0  0  0
    5.1340    1.8150    0.9790 C   0  0  0  0  0  0  0  0  0  0  0  0
    4.4500    2.3660    1.6350 H   0  0  0  0  0  0  0  0  0  0  0  0
    6.1230    2.2810    1.0150 H   0  0  0  0  0  0  0  0  0  0  0  0
    4.1490   -1.5000    1.0920 O   0  0  0  0  0  0  0  0  0  0  0  0
   -1.1150    2.1060    0.7820 C   0  0  0  0  0  0  0  0  0  0  0  0
   -0.8720    3.1730    0.7040 H   0  0  0  0  0  0  0  0  0  0  0  0
   -1.1460    1.9020    1.8590 H   0  0  0  0  0  0  0  0  0  0  0  0
    0.9610   -3.3940    1.0750 C   0  0  0  0  0  0  0  0  0  0  0  0
    1.8730   -3.0740    1.5720 H   0  0  0  0  0  0  0  0  0  0  0  0
    0.6150   -4.4010    1.2860 H   0  0  0  0  0  0  0  0  0  0  0  0
   -4.1080    0.0690   -0.5500 C   0  0  0  0  0  0  0  0  0  0  0  0
   -4.5600   -0.9080   -0.3520 H   0  0  0  0  0  0  0  0  0  0  0  0
   -3.7680    0.0800   -1.5900 H   0  0  0  0  0  0  0  0  0  0  0  0
   -0.6570   -0.0680   -1.9200 C   0  0  0  0  0  0  0  0  0  0  0  0
    0.1750    0.4150   -2.4410 H   0  0  0  0  0  0  0  0  0  0  0  0
   -1.5480    0.5110   -2.1710 H   0  0  0  0  0  0  0  0  0  0  0  0
   -0.7860   -1.0530   -2.3740 H   0  0  0  0  0  0  0  0  0  0  0  0
   -3.5220    0.2390    1.8640 C   0  0  0  0  0  0  0  0  0  0  0  0
   -3.8520   -0.7870    2.0610 H   0  0  0  0  0  0  0  0  0  0  0  0
   -4.3880    0.8900    2.0240 H   0  0  0  0  0  0  0  0  0  0  0  0
   -2.7800    0.4970    2.6280 H   0  0  0  0  0  0  0  0  0  0  0  0
    5.6760    1.5260   -1.3470 O   0  0  0  0  0  0  0  0  0  0  0  0
    5.2950    1.2790   -2.2080 H   0  0  0  0  0  0  0  0  0  0  0  0
   -3.4630    2.7400    0.6010 O   0  0  0  0  0  0  0  0  0  0  0  0
   -3.0670    3.6310    0.5850 H   0  0  0  0  0  0  0  0  0  0  0  0
   -5.1600    1.0310   -0.4390 O   0  0  0  0  0  0  0  0  0  0  0  0
   -4.7750    1.8460   -0.0410 H   0  0  0  0  0  0  0  0  0  0  0  0
   -1.3840   -0.7870    1.3810 H   0  0  0  0  0  0  0  0  0  0  0  0
    1.1870   -0.8210    0.9290 H   0  0  0  0  0  0  0  0  0  0  0  0
    4.0150    2.5680   -0.7250 H   0  0  0  0  0  0  0  0  0  0  0  0
   -2.3830    1.9960   -0.9240 H   0  0  0  0  0  0  0  0  0  0  0  0
  1  3  1  0  0  0  0
  1  8  1  0  0  0  0
  1 14  1  0  0  0  0
  1 38  1  0  0  0  0
  2  5  1  0  0  0  0
  2  6  2  0  0  0  0
  2 20  1  0  0  0  0
  3  4  1  0  0  0  0
  3 17  1  0  0  0  0
  3 52  1  0  0  0  0
  4 21  1  0  0  0  0
  4 35  1  0  0  0  0
  4 42  1  0  0  0  0
  5  9  1  0  0  0  0
  5 28  2  0  0  0  0
  6  7  1  0  0  0  0
  6 11  1  0  0  0  0
  8 10  1  0  0  0  0
  8 11  1  0  0  0  0
  8 53  1  0  0  0  0
  9 25  1  0  0  0  0
 10 22  1  0  0  0  0
 10 32  2  0  0  0  0
 11 12  1  0  0  0  0
 11 13  1  0  0  0  0
 14 15  1  0  0  0  0
 14 16  1  0  0  0  0
 14 29  1  0  0  0  0
 17 18  1  0  0  0  0
 17 19  1  0  0  0  0
 17 22  1  0  0  0  0
 20 25  1  0  0  0  0
 20 46  1  0  0  0  0
 20 54  1  0  0  0  0
 21 29  1  0  0  0  0
 21 48  1  0  0  0  0
 21 55  1  0  0  0  0
 22 23  1  0  0  0  0
 22 24  1  0  0  0  0
 25 26  1  0  0  0  0
 25 27  1  0  0  0  0
 29 30  1  0  0  0  0
 29 31  1  0  0  0  0
 32 33  1  0  0  0  0
 32 34  1  0  0  0  0
 35 36  1  0  0  0  0
 35 37  1  0  0  0  0
 35 50  1  0  0  0  0
 38 39  1  0  0  0  0
 38 40  1  0  0  0  0
 38 41  1  0  0  0  0
 42 43  1  0  0  0  0
 42 44  1  0  0  0  0
 42 45  1  0  0  0  0
 46 47  1  0  0  0  0
 48 49  1  0  0  0  0
 50 51  1  0  0  0  0
M  END
>  <IDNUMBER>
AM-721/20681006

>  <NAME>
Andrographolide

>  <ADD_INFO>
http://www.specs.net/enter.php?specsid=AM-721/20681006

>  <H_ACCEPTORS>
5

>  <H_DONORS>
3

>  <ROTATABLE_BONDS>
3

>  <LOGP>
1.9

>  <LOGS>
-3.3800001

>  <TPSA>
86.989998

>  <PRICE>
N07

$$$$
AM-730/20761034
  MOE2011           3D

 42 43  0  0  0  0  0  0  0  0999 V2000
    3.9810    0.5120    0.0150 N   0  0  0  0  0  0  0  0  0  0  0  0
    5.1840    1.1180    0.3610 C   0  0  0  0  0  0  0  0  0  0  0  0
    2.9260    1.3220   -0.3840 C   0  0  0  0  0  0  0  0  0  0  0  0
   -3.5430    0.1350    0.1180 C   0  0  0  0  0  0  0  0  0  0  0  0
   -3.2100    1.4880   -0.0220 C   0  0  0  0  0  0  0  0  0  0  0  0
   -2.5450   -0.8530    0.0530 C   0  0  0  0  0  0  0  0  0  0  0  0
    1.5640    0.8100   -0.0480 C   0  0  0  0  0  0  0  0  0  0  0  0
    1.4750    0.0760    0.7430 H   0  0  0  0  0  0  0  0  0  0  0  0
    0.4870    1.3080   -0.6730 C   0  0  0  0  0  0  0  0  0  0  0  0
    0.5920    2.0860   -1.4260 H   0  0  0  0  0  0  0  0  0  0  0  0
   -0.8860    0.8820   -0.3730 C   0  0  0  0  0  0  0  0  0  0  0  0
   -1.8920    1.8510   -0.3020 C   0  0  0  0  0  0  0  0  0  0  0  0
   -1.6520    2.9030   -0.4410 H   0  0  0  0  0  0  0  0  0  0  0  0
   -1.2220   -0.4700   -0.2000 C   0  0  0  0  0  0  0  0  0  0  0  0
   -0.4380   -1.2150   -0.2860 H   0  0  0  0  0  0  0  0  0  0  0  0
    6.3620    0.2190    0.5110 C   0  0  0  0  0  0  0  0  0  0  0  0
    7.2700    0.6820    0.8790 H   0  0  0  0  0  0  0  0  0  0  0  0
    5.3460    2.3120    0.6000 O   0  0  0  0  0  0  0  0  0  0  0  0
    3.0470    2.3680   -1.0180 O   0  0  0  0  0  0  0  0  0  0  0  0
    6.3270   -1.0640    0.1330 C   0  0  0  0  0  0  0  0  0  0  0  0
    7.2240   -1.6730    0.1970 H   0  0  0  0  0  0  0  0  0  0  0  0
   -4.8450   -0.2420    0.3500 O   0  0  0  0  0  0  0  0  0  0  0  0
    3.8500   -0.9450    0.1220 C   0  0  0  0  0  0  0  0  0  0  0  0
    3.6910   -1.1700    1.1850 H   0  0  0  0  0  0  0  0  0  0  0  0
    2.9720   -1.2970   -0.4300 H   0  0  0  0  0  0  0  0  0  0  0  0
   -2.9630   -2.1480    0.2290 O   0  0  0  0  0  0  0  0  0  0  0  0
   -4.1050    2.5250    0.0310 O   0  0  0  0  0  0  0  0  0  0  0  0
    5.0780   -1.6920   -0.3870 C   0  0  0  0  0  0  0  0  0  0  0  0
    5.0230   -2.7380   -0.0670 H   0  0  0  0  0  0  0  0  0  0  0  0
    5.1080   -1.6830   -1.4830 H   0  0  0  0  0  0  0  0  0  0  0  0
   -5.5160   -0.4510   -0.8930 C   0  0  0  0  0  0  0  0  0  0  0  0
   -6.5360   -0.7790   -0.6710 H   0  0  0  0  0  0  0  0  0  0  0  0
   -5.0310   -1.2340   -1.4860 H   0  0  0  0  0  0  0  0  0  0  0  0
   -5.5790    0.4790   -1.4700 H   0  0  0  0  0  0  0  0  0  0  0  0
   -1.9720   -3.1670    0.2080 C   0  0  0  0  0  0  0  0  0  0  0  0
   -2.4730   -4.1230    0.3930 H   0  0  0  0  0  0  0  0  0  0  0  0
   -1.2340   -3.0190    1.0040 H   0  0  0  0  0  0  0  0  0  0  0  0
   -1.4910   -3.2290   -0.7730 H   0  0  0  0  0  0  0  0  0  0  0  0
   -4.9240    2.5100    1.1980 C   0  0  0  0  0  0  0  0  0  0  0  0
   -5.1790    3.5470    1.4370 H   0  0  0  0  0  0  0  0  0  0  0  0
   -4.4140    2.0830    2.0690 H   0  0  0  0  0  0  0  0  0  0  0  0
   -5.8600    1.9800    0.9980 H   0  0  0  0  0  0  0  0  0  0  0  0
  1  2  1  0  0  0  0
  1  3  1  0  0  0  0
  1 23  1  0  0  0  0
  2 16  1  0  0  0  0
  2 18  2  0  0  0  0
  3  7  1  0  0  0  0
  3 19  2  0  0  0  0
  4  5  2  0  0  0  0
  4  6  1  0  0  0  0
  4 22  1  0  0  0  0
  5 12  1  0  0  0  0
  5 27  1  0  0  0  0
  6 14  2  0  0  0  0
  6 26  1  0  0  0  0
  7  8  1  0  0  0  0
  7  9  2  0  0  0  0
  9 10  1  0  0  0  0
  9 11  1  0  0  0  0
 11 12  2  0  0  0  0
 11 14  1  0  0  0  0
 12 13  1  0  0  0  0
 14 15  1  0  0  0  0
 16 17  1  0  0  0  0
 16 20  2  0  0  0  0
 20 21  1  0  0  0  0
 20 28  1  0  0  0  0
 22 31  1  0  0  0  0
 23 24  1  0  0  0  0
 23 25  1  0  0  0  0
 23 28  1  0  0  0  0
 26 35  1  0  0  0  0
 27 39  1  0  0  0  0
 28 29  1  0  0  0  0
 28 30  1  0  0  0  0
 31 32  1  0  0  0  0
 31 33  1  0  0  0  0
 31 34  1  0  0  0  0
 35 36  1  0  0  0  0
 35 37  1  0  0  0  0
 35 38  1  0  0  0  0
 39 40  1  0  0  0  0
 39 41  1  0  0  0  0
 39 42  1  0  0  0  0
M  END
>  <IDNUMBER>
AM-730/20761034

>  <NAME>
1-[3-(3,4,5-trimethoxyphenyl)acryloyl]-5,6-dihydro-2(1H)-pyridinone

>  <ADD_INFO>
http://www.specs.net/enter.php?specsid=AM-730/20761034

>  <H_ACCEPTORS>
3

>  <H_DONORS>
0

>  <ROTATABLE_BONDS>
6

>  <LOGP>
1.14

>  <LOGS>
-2.49

>  <TPSA>
65.07

>  <PRICE>
N07

$$$$
AN-308/21259006
  MOE2011           3D

 22 23  0  0  0  0  0  0  0  0999 V2000
    0.9130    0.3190    0.0000 C   0  0  0  0  0  0  0  0  0  0  0  0
    2.0780    1.1150    0.0000 O   0  0  0  0  0  0  0  0  0  0  0  0
   -0.3140    0.9870    0.0010 C   0  0  0  0  0  0  0  0  0  0  0  0
   -0.3170    2.0710    0.0000 H   0  0  0  0  0  0  0  0  0  0  0  0
    1.0030   -1.0740    0.0000 C   0  0  0  0  0  0  0  0  0  0  0  0
    3.3440    0.5430    0.0020 C   0  0  0  0  0  0  0  0  0  0  0  0
    2.3170   -1.6950   -0.0030 C   0  0  0  0  0  0  0  0  0  0  0  0
    2.3900   -2.7780   -0.0060 H   0  0  0  0  0  0  0  0  0  0  0  0
   -1.4880    0.2380    0.0020 C   0  0  0  0  0  0  0  0  0  0  0  0
   -1.3970   -1.1620    0.0030 C   0  0  0  0  0  0  0  0  0  0  0  0
    3.4110   -0.9290   -0.0020 C   0  0  0  0  0  0  0  0  0  0  0  0
    4.4050   -1.3620   -0.0030 H   0  0  0  0  0  0  0  0  0  0  0  0
   -0.1720   -1.8240    0.0020 C   0  0  0  0  0  0  0  0  0  0  0  0
   -0.1510   -2.9090    0.0020 H   0  0  0  0  0  0  0  0  0  0  0  0
    4.3670    1.2170    0.0070 O   0  0  0  0  0  0  0  0  0  0  0  0
   -2.5410   -1.9140    0.0050 O   0  0  0  0  0  0  0  0  0  0  0  0
   -3.2700   -1.2620    0.0050 H   0  0  0  0  0  0  0  0  0  0  0  0
   -2.7680    0.7280    0.0030 O   0  0  0  0  0  0  0  0  0  0  0  0
   -2.9040    2.1460   -0.0030 C   0  0  0  0  0  0  0  0  0  0  0  0
   -3.9730    2.3780   -0.0040 H   0  0  0  0  0  0  0  0  0  0  0  0
   -2.4660    2.5800   -0.9080 H   0  0  0  0  0  0  0  0  0  0  0  0
   -2.4680    2.5870    0.9000 H   0  0  0  0  0  0  0  0  0  0  0  0
  1  2  1  0  0  0  0
  1  3  2  0  0  0  0
  1  5  1  0  0  0  0
  2  6  1  0  0  0  0
  3  4  1  0  0  0  0
  3  9  1  0  0  0  0
  5  7  1  0  0  0  0
  5 13  2  0  0  0  0
  6 11  1  0  0  0  0
  6 15  2  0  0  0  0
  7  8  1  0  0  0  0
  7 11  2  0  0  0  0
  9 10  2  0  0  0  0
  9 18  1  0  0  0  0
 10 13  1  0  0  0  0
 10 16  1  0  0  0  0
 11 12  1  0  0  0  0
 13 14  1  0  0  0  0
 16 17  1  0  0  0  0
 18 19  1  0  0  0  0
 19 20  1  0  0  0  0
 19 21  1  0  0  0  0
 19 22  1  0  0  0  0
M  END
>  <IDNUMBER>
AN-308/21259006

>  <NAME>
Isoscopoletin

>  <ADD_INFO>
http://www.specs.net/enter.php?specsid=AN-308/21259006

>  <H_ACCEPTORS>
1

>  <H_DONORS>
1

>  <ROTATABLE_BONDS>
1

>  <LOGP>
0.86000001

>  <LOGS>
-1.34

>  <TPSA>
55.759998

>  <PRICE>
N07

$$$$
AN-374/12457006
  MOE2011           3D

 39 41  0  0  1  0  0  0  0  0999 V2000
   -1.2240   -0.2500    1.2190 C   0  0  2  0  0  0  0  0  0  0  0  0
    0.2200   -0.1570    0.7370 C   0  0  0  0  0  0  0  0  0  0  0  0
   -1.8300   -1.5400    1.0600 O   0  0  0  0  0  0  0  0  0  0  0  0
   -2.7190   -1.5410    0.0260 C   0  0  0  0  0  0  0  0  0  0  0  0
   -2.1910    0.6940    0.5020 C   0  0  2  0  0  0  0  0  0  0  0  0
    0.7040    1.1520    0.4370 C   0  0  0  0  0  0  0  0  0  0  0  0
    1.1070   -1.2580    0.6750 C   0  0  0  0  0  0  0  0  0  0  0  0
   -2.7630   -0.1820   -0.6090 C   0  0  2  0  0  0  0  0  0  0  0  0
    2.4120   -1.0390    0.2030 C   0  0  0  0  0  0  0  0  0  0  0  0
    2.0410    1.3520    0.0390 C   0  0  0  0  0  0  0  0  0  0  0  0
   -1.5900    1.9980   -0.0200 C   0  0  0  0  0  0  0  0  0  0  0  0
   -1.4570    1.9530   -1.1090 H   0  0  0  0  0  0  0  0  0  0  0  0
   -2.2900    2.8230    0.1620 H   0  0  0  0  0  0  0  0  0  0  0  0
    2.8790    0.2420   -0.0890 C   0  0  0  0  0  0  0  0  0  0  0  0
    3.9140    0.3700   -0.3970 H   0  0  0  0  0  0  0  0  0  0  0  0
   -0.2490    2.3150    0.6250 C   0  0  0  0  0  0  0  0  0  0  0  0
   -0.3670    2.5060    1.6990 H   0  0  0  0  0  0  0  0  0  0  0  0
    0.1320    3.2370    0.1760 H   0  0  0  0  0  0  0  0  0  0  0  0
   -3.3500   -2.5220   -0.3310 O   0  0  0  0  0  0  0  0  0  0  0  0
    3.2900   -2.0930    0.1030 O   0  0  0  0  0  0  0  0  0  0  0  0
    0.6990   -2.6500    1.0820 C   0  0  0  0  0  0  0  0  0  0  0  0
    0.1690   -2.6320    2.0400 H   0  0  0  0  0  0  0  0  0  0  0  0
    1.5590   -3.3080    1.2370 H   0  0  0  0  0  0  0  0  0  0  0  0
    0.0720   -3.1030    0.3080 H   0  0  0  0  0  0  0  0  0  0  0  0
   -4.1660    0.2260   -1.0220 C   0  0  0  0  0  0  0  0  0  0  0  0
   -4.1800    1.2500   -1.4090 H   0  0  0  0  0  0  0  0  0  0  0  0
   -4.8670    0.1660   -0.1820 H   0  0  0  0  0  0  0  0  0  0  0  0
   -4.5450   -0.4380   -1.8070 H   0  0  0  0  0  0  0  0  0  0  0  0
    2.5980    2.7170   -0.2580 C   0  0  0  0  0  0  0  0  0  0  0  0
    3.6700    2.6760   -0.4790 H   0  0  0  0  0  0  0  0  0  0  0  0
    2.4710    3.3780    0.6060 H   0  0  0  0  0  0  0  0  0  0  0  0
    2.0980    3.1490   -1.1300 H   0  0  0  0  0  0  0  0  0  0  0  0
    3.4710   -2.4600   -1.2650 C   0  0  0  0  0  0  0  0  0  0  0  0
    4.0570   -3.3830   -1.2880 H   0  0  0  0  0  0  0  0  0  0  0  0
    4.0300   -1.6920   -1.8090 H   0  0  0  0  0  0  0  0  0  0  0  0
    2.5110   -2.6550   -1.7570 H   0  0  0  0  0  0  0  0  0  0  0  0
   -1.2180   -0.0270    2.2940 H   0  0  0  0  0  0  0  0  0  0  0  0
   -2.9980    0.9360    1.2100 H   0  0  0  0  0  0  0  0  0  0  0  0
   -2.1000   -0.2090   -1.4810 H   0  0  0  0  0  0  0  0  0  0  0  0
  1  2  1  0  0  0  0
  1  3  1  0  0  0  0
  1  5  1  0  0  0  0
  1 37  1  0  0  0  0
  2  6  2  0  0  0  0
  2  7  1  0  0  0  0
  3  4  1  0  0  0  0
  4  8  1  0  0  0  0
  4 19  2  0  0  0  0
  5  8  1  0  0  0  0
  5 11  1  0  0  0  0
  5 38  1  0  0  0  0
  6 10  1  0  0  0  0
  6 16  1  0  0  0  0
  7  9  2  0  0  0  0
  7 21  1  0  0  0  0
  8 25  1  0  0  0  0
  8 39  1  0  0  0  0
  9 14  1  0  0  0  0
  9 20  1  0  0  0  0
 10 14  2  0  0  0  0
 10 29  1  0  0  0  0
 11 12  1  0  0  0  0
 11 13  1  0  0  0  0
 11 16  1  0  0  0  0
 14 15  1  0  0  0  0
 16 17  1  0  0  0  0
 16 18  1  0  0  0  0
 20 33  1  0  0  0  0
 21 22  1  0  0  0  0
 21 23  1  0  0  0  0
 21 24  1  0  0  0  0
 25 26  1  0  0  0  0
 25 27  1  0  0  0  0
 25 28  1  0  0  0  0
 29 30  1  0  0  0  0
 29 31  1  0  0  0  0
 29 32  1  0  0  0  0
 33 34  1  0  0  0  0
 33 35  1  0  0  0  0
 33 36  1  0  0  0  0
M  END
>  <IDNUMBER>
AN-374/12457006

>  <NAME>
alpha-Desmotroposantonin methylether

>  <ADD_INFO>
http://www.specs.net/enter.php?specsid=AN-374/12457006

>  <H_ACCEPTORS>
2

>  <H_DONORS>
0

>  <ROTATABLE_BONDS>
1

>  <LOGP>
3.1800001

>  <LOGS>
-3.8199999

>  <TPSA>
35.529999

>  <PRICE>
N07

$$$$
AN-374/12457007
  MOE2011           3D

 41 43  0  0  1  0  0  0  0  0999 V2000
   -1.2930   -0.5720    0.5930 C   0  0  2  0  0  0  0  0  0  0  0  0
    0.0920    0.0270    0.4280 C   0  0  0  0  0  0  0  0  0  0  0  0
   -1.5110   -1.5870   -0.3990 O   0  0  0  0  0  0  0  0  0  0  0  0
   -2.8410   -1.6620   -0.6970 C   0  0  0  0  0  0  0  0  0  0  0  0
   -2.4760    0.3720    0.4350 C   0  0  2  0  0  0  0  0  0  0  0  0
    0.2480    1.3810    0.0170 C   0  0  0  0  0  0  0  0  0  0  0  0
    2.5030   -0.1800    0.5130 C   0  0  0  0  0  0  0  0  0  0  0  0
    1.2410   -0.7630    0.6920 C   0  0  0  0  0  0  0  0  0  0  0  0
   -3.5980   -0.5680    0.0090 C   0  0  2  0  0  0  0  0  0  0  0  0
    1.5400    1.9530   -0.0790 C   0  0  0  0  0  0  0  0  0  0  0  0
    2.6620    1.1580    0.1630 C   0  0  0  0  0  0  0  0  0  0  0  0
    3.6630    1.5750    0.0820 H   0  0  0  0  0  0  0  0  0  0  0  0
   -2.1950    1.4210   -0.6420 C   0  0  0  0  0  0  0  0  0  0  0  0
   -2.0330    0.9460   -1.6180 H   0  0  0  0  0  0  0  0  0  0  0  0
   -3.0590    2.0870   -0.7530 H   0  0  0  0  0  0  0  0  0  0  0  0
    3.6750   -0.9260    0.7610 O   0  0  0  0  0  0  0  0  0  0  0  0
   -0.9690    2.2390   -0.2620 C   0  0  0  0  0  0  0  0  0  0  0  0
   -1.1810    2.8390    0.6310 H   0  0  0  0  0  0  0  0  0  0  0  0
   -0.7680    2.9290   -1.0900 H   0  0  0  0  0  0  0  0  0  0  0  0
    4.3880   -1.5310   -0.2710 C   0  0  0  0  0  0  0  0  0  0  0  0
   -3.3390   -2.5130   -1.4180 O   0  0  0  0  0  0  0  0  0  0  0  0
    5.4700   -2.0730   -0.0620 O   0  0  0  0  0  0  0  0  0  0  0  0
    1.1270   -2.2050    1.1160 C   0  0  0  0  0  0  0  0  0  0  0  0
    0.4190   -2.3150    1.9430 H   0  0  0  0  0  0  0  0  0  0  0  0
    2.0770   -2.6090    1.4780 H   0  0  0  0  0  0  0  0  0  0  0  0
    0.8030   -2.8210    0.2720 H   0  0  0  0  0  0  0  0  0  0  0  0
   -4.3720   -1.1500    1.1840 C   0  0  0  0  0  0  0  0  0  0  0  0
   -4.8630   -0.3560    1.7560 H   0  0  0  0  0  0  0  0  0  0  0  0
   -3.7250   -1.7120    1.8650 H   0  0  0  0  0  0  0  0  0  0  0  0
   -5.1460   -1.8400    0.8290 H   0  0  0  0  0  0  0  0  0  0  0  0
    1.7500    3.3930   -0.4650 C   0  0  0  0  0  0  0  0  0  0  0  0
    2.7870    3.7050   -0.3020 H   0  0  0  0  0  0  0  0  0  0  0  0
    1.1210    4.0510    0.1430 H   0  0  0  0  0  0  0  0  0  0  0  0
    1.5170    3.5370   -1.5240 H   0  0  0  0  0  0  0  0  0  0  0  0
    3.7580   -1.4930   -1.6360 C   0  0  0  0  0  0  0  0  0  0  0  0
    3.7160   -0.4700   -2.0140 H   0  0  0  0  0  0  0  0  0  0  0  0
    2.7680   -1.9550   -1.6180 H   0  0  0  0  0  0  0  0  0  0  0  0
    4.3770   -2.0770   -2.3240 H   0  0  0  0  0  0  0  0  0  0  0  0
   -1.3550   -1.0460    1.5810 H   0  0  0  0  0  0  0  0  0  0  0  0
   -2.6990    0.8910    1.3750 H   0  0  0  0  0  0  0  0  0  0  0  0
   -4.2820   -0.0800   -0.6930 H   0  0  0  0  0  0  0  0  0  0  0  0
  1  2  1  0  0  0  0
  1  3  1  0  0  0  0
  1  5  1  0  0  0  0
  1 39  1  0  0  0  0
  2  6  2  0  0  0  0
  2  8  1  0  0  0  0
  3  4  1  0  0  0  0
  4  9  1  0  0  0  0
  4 21  2  0  0  0  0
  5  9  1  0  0  0  0
  5 13  1  0  0  0  0
  5 40  1  0  0  0  0
  6 10  1  0  0  0  0
  6 17  1  0  0  0  0
  7  8  2  0  0  0  0
  7 11  1  0  0  0  0
  7 16  1  0  0  0  0
  8 23  1  0  0  0  0
  9 27  1  0  0  0  0
  9 41  1  0  0  0  0
 10 11  2  0  0  0  0
 10 31  1  0  0  0  0
 11 12  1  0  0  0  0
 13 14  1  0  0  0  0
 13 15  1  0  0  0  0
 13 17  1  0  0  0  0
 16 20  1  0  0  0  0
 17 18  1  0  0  0  0
 17 19  1  0  0  0  0
 20 22  2  0  0  0  0
 20 35  1  0  0  0  0
 23 24  1  0  0  0  0
 23 25  1  0  0  0  0
 23 26  1  0  0  0  0
 27 28  1  0  0  0  0
 27 29  1  0  0  0  0
 27 30  1  0  0  0  0
 31 32  1  0  0  0  0
 31 33  1  0  0  0  0
 31 34  1  0  0  0  0
 35 36  1  0  0  0  0
 35 37  1  0  0  0  0
 35 38  1  0  0  0  0
M  END
>  <IDNUMBER>
AN-374/12457007

>  <NAME>
Acetyl-alpha-desmotroposantonin

>  <ADD_INFO>
http://www.specs.net/enter.php?specsid=AN-374/12457007

>  <H_ACCEPTORS>
3

>  <H_DONORS>
0

>  <ROTATABLE_BONDS>
2

>  <LOGP>
2.7

>  <LOGS>
-3.6099999

>  <TPSA>
52.599998

>  <PRICE>
N07

$$$$
AN-566/21182001
  MOE2011           3D

 36 37  0  0  1  0  0  0  0  0999 V2000
    2.4020   -0.3430   -0.3280 C   0  0  0  0  0  0  0  0  0  0  0  0
    1.1790   -1.1690   -0.3830 C   0  0  0  0  0  0  0  0  0  0  0  0
    2.3820    1.0400   -0.1230 C   0  0  0  0  0  0  0  0  0  0  0  0
    0.2390   -1.1370    0.8210 C   0  0  3  0  0  0  0  0  0  0  0  0
    3.6260   -1.0110   -0.4650 C   0  0  0  0  0  0  0  0  0  0  0  0
    3.6520   -2.0840   -0.6420 H   0  0  0  0  0  0  0  0  0  0  0  0
    3.5780    1.7480   -0.0030 C   0  0  0  0  0  0  0  0  0  0  0  0
    3.5450    2.8200    0.1670 H   0  0  0  0  0  0  0  0  0  0  0  0
   -1.0930   -0.4820    0.5040 C   0  0  0  0  0  0  0  0  0  0  0  0
    1.0010   -1.8790   -1.3700 O   0  0  0  0  0  0  0  0  0  0  0  0
   -1.5460    0.5910    1.2830 C   0  0  0  0  0  0  0  0  0  0  0  0
   -0.9500    0.9660    2.1130 H   0  0  0  0  0  0  0  0  0  0  0  0
   -1.9040   -0.9290   -0.5490 C   0  0  0  0  0  0  0  0  0  0  0  0
   -1.5880   -1.7670   -1.1710 H   0  0  0  0  0  0  0  0  0  0  0  0
    4.7890    1.0700   -0.1210 C   0  0  0  0  0  0  0  0  0  0  0  0
    1.2380    1.7820   -0.0500 O   0  0  0  0  0  0  0  0  0  0  0  0
    0.5240    1.3470   -0.5480 H   0  0  0  0  0  0  0  0  0  0  0  0
    4.8210   -0.3000   -0.3580 C   0  0  0  0  0  0  0  0  0  0  0  0
    5.7740   -0.8130   -0.4560 H   0  0  0  0  0  0  0  0  0  0  0  0
   -3.5720    0.7530   -0.0470 C   0  0  0  0  0  0  0  0  0  0  0  0
   -3.1320   -0.3170   -0.8240 C   0  0  0  0  0  0  0  0  0  0  0  0
   -3.7170   -0.7030   -1.6520 H   0  0  0  0  0  0  0  0  0  0  0  0
   -2.7720    1.2030    1.0060 C   0  0  0  0  0  0  0  0  0  0  0  0
   -3.1070    2.0350    1.6190 H   0  0  0  0  0  0  0  0  0  0  0  0
    5.9820    1.7240   -0.0180 O   0  0  0  0  0  0  0  0  0  0  0  0
    5.8110    2.6680    0.1370 H   0  0  0  0  0  0  0  0  0  0  0  0
   -4.7450    1.4370   -0.2070 O   0  0  0  0  0  0  0  0  0  0  0  0
    0.0450   -2.5610    1.3490 C   0  0  0  0  0  0  0  0  0  0  0  0
   -0.5850   -2.5650    2.2450 H   0  0  0  0  0  0  0  0  0  0  0  0
    1.0100   -3.0100    1.6100 H   0  0  0  0  0  0  0  0  0  0  0  0
   -0.4270   -3.2140    0.6060 H   0  0  0  0  0  0  0  0  0  0  0  0
   -5.6130    0.9900   -1.2420 C   0  0  0  0  0  0  0  0  0  0  0  0
   -6.5030    1.6260   -1.2290 H   0  0  0  0  0  0  0  0  0  0  0  0
   -5.9370   -0.0410   -1.0680 H   0  0  0  0  0  0  0  0  0  0  0  0
   -5.1420    1.0970   -2.2250 H   0  0  0  0  0  0  0  0  0  0  0  0
    0.7340   -0.5700    1.6210 H   0  0  0  0  0  0  0  0  0  0  0  0
  1  2  1  0  0  0  0
  1  3  2  0  0  0  0
  1  5  1  0  0  0  0
  2  4  1  0  0  0  0
  2 10  2  0  0  0  0
  3  7  1  0  0  0  0
  3 16  1  0  0  0  0
  4  9  1  0  0  0  0
  4 28  1  0  0  0  0
  4 36  1  0  0  0  0
  5  6  1  0  0  0  0
  5 18  2  0  0  0  0
  7  8  1  0  0  0  0
  7 15  2  0  0  0  0
  9 11  2  0  0  0  0
  9 13  1  0  0  0  0
 11 12  1  0  0  0  0
 11 23  1  0  0  0  0
 13 14  1  0  0  0  0
 13 21  2  0  0  0  0
 15 18  1  0  0  0  0
 15 25  1  0  0  0  0
 16 17  1  0  0  0  0
 18 19  1  0  0  0  0
 20 21  1  0  0  0  0
 20 23  2  0  0  0  0
 20 27  1  0  0  0  0
 21 22  1  0  0  0  0
 23 24  1  0  0  0  0
 25 26  1  0  0  0  0
 27 32  1  0  0  0  0
 28 29  1  0  0  0  0
 28 30  1  0  0  0  0
 28 31  1  0  0  0  0
 32 33  1  0  0  0  0
 32 34  1  0  0  0  0
 32 35  1  0  0  0  0
M  END
>  <IDNUMBER>
AN-566/21182001

>  <NAME>
Angolensin

>  <ADD_INFO>
http://www.specs.net/enter.php?specsid=AN-566/21182001

>  <H_ACCEPTORS>
1

>  <H_DONORS>
2

>  <ROTATABLE_BONDS>
4

>  <LOGP>
3.7

>  <LOGS>
-3.76

>  <TPSA>
66.760002

>  <PRICE>
N05

$$$$
AN-566/21182004
  MOE2011           3D

 36 40  0  0  1  0  0  0  0  0999 V2000
    0.0230    0.5380   -0.9660 C   0  0  2  0  0  0  0  0  0  0  0  0
   -0.7410    1.4830   -0.1680 O   0  0  0  0  0  0  0  0  0  0  0  0
   -0.6430   -0.8440   -0.8490 C   0  0  2  0  0  0  0  0  0  0  0  0
   -1.9950    0.9260   -0.1120 C   0  0  0  0  0  0  0  0  0  0  0  0
   -2.0230   -0.4140   -0.5120 C   0  0  0  0  0  0  0  0  0  0  0  0
    1.4660    0.5330   -0.5380 C   0  0  0  0  0  0  0  0  0  0  0  0
    2.0780   -0.6430   -0.0930 C   0  0  0  0  0  0  0  0  0  0  0  0
   -3.2020   -1.1430   -0.5080 C   0  0  0  0  0  0  0  0  0  0  0  0
   -3.2440   -2.1830   -0.8080 H   0  0  0  0  0  0  0  0  0  0  0  0
   -3.1230    1.5960    0.3220 C   0  0  0  0  0  0  0  0  0  0  0  0
   -3.0920    2.6290    0.6420 H   0  0  0  0  0  0  0  0  0  0  0  0
    1.4050   -1.8330    0.0240 O   0  0  0  0  0  0  0  0  0  0  0  0
    0.0060   -1.6550    0.2630 C   0  0  0  0  0  0  0  0  0  0  0  0
   -0.4470   -2.6520    0.3100 H   0  0  0  0  0  0  0  0  0  0  0  0
   -0.1340   -1.2050    1.2560 H   0  0  0  0  0  0  0  0  0  0  0  0
   -4.3290   -0.4650   -0.0870 C   0  0  0  0  0  0  0  0  0  0  0  0
   -4.2910    0.8600    0.3170 C   0  0  0  0  0  0  0  0  0  0  0  0
    2.2360    1.6990   -0.6260 C   0  0  0  0  0  0  0  0  0  0  0  0
    1.7860    2.6300   -0.9660 H   0  0  0  0  0  0  0  0  0  0  0  0
    3.4390   -0.6710    0.2260 C   0  0  0  0  0  0  0  0  0  0  0  0
    3.8670   -1.6130    0.5500 H   0  0  0  0  0  0  0  0  0  0  0  0
   -5.5820   -0.9910   -0.0060 O   0  0  0  0  0  0  0  0  0  0  0  0
   -5.5160    1.3170    0.6970 O   0  0  0  0  0  0  0  0  0  0  0  0
   -6.3260    0.1410    0.4900 C   0  0  0  0  0  0  0  0  0  0  0  0
   -6.7920   -0.1350    1.4420 H   0  0  0  0  0  0  0  0  0  0  0  0
   -7.1160    0.3830   -0.2310 H   0  0  0  0  0  0  0  0  0  0  0  0
    4.2010    0.4930    0.1350 C   0  0  0  0  0  0  0  0  0  0  0  0
    3.5910    1.6770   -0.2880 C   0  0  0  0  0  0  0  0  0  0  0  0
    4.1790    2.5890   -0.3620 H   0  0  0  0  0  0  0  0  0  0  0  0
    5.5330    0.6070    0.4260 O   0  0  0  0  0  0  0  0  0  0  0  0
    6.1970   -0.5700    0.8700 C   0  0  0  0  0  0  0  0  0  0  0  0
    7.2430   -0.3130    1.0590 H   0  0  0  0  0  0  0  0  0  0  0  0
    6.1800   -1.3480    0.0990 H   0  0  0  0  0  0  0  0  0  0  0  0
    5.7680   -0.9350    1.8100 H   0  0  0  0  0  0  0  0  0  0  0  0
   -0.0300    0.8830   -2.0090 H   0  0  0  0  0  0  0  0  0  0  0  0
   -0.5760   -1.3720   -1.8070 H   0  0  0  0  0  0  0  0  0  0  0  0
  1  2  1  0  0  0  0
  1  3  1  0  0  0  0
  1  6  1  0  0  0  0
  1 35  1  0  0  0  0
  2  4  1  0  0  0  0
  3  5  1  0  0  0  0
  3 13  1  0  0  0  0
  3 36  1  0  0  0  0
  4  5  2  0  0  0  0
  4 10  1  0  0  0  0
  5  8  1  0  0  0  0
  6  7  2  0  0  0  0
  6 18  1  0  0  0  0
  7 12  1  0  0  0  0
  7 20  1  0  0  0  0
  8  9  1  0  0  0  0
  8 16  2  0  0  0  0
 10 11  1  0  0  0  0
 10 17  2  0  0  0  0
 12 13  1  0  0  0  0
 13 14  1  0  0  0  0
 13 15  1  0  0  0  0
 16 17  1  0  0  0  0
 16 22  1  0  0  0  0
 17 23  1  0  0  0  0
 18 19  1  0  0  0  0
 18 28  2  0  0  0  0
 20 21  1  0  0  0  0
 20 27  2  0  0  0  0
 22 24  1  0  0  0  0
 23 24  1  0  0  0  0
 24 25  1  0  0  0  0
 24 26  1  0  0  0  0
 27 28  1  0  0  0  0
 27 30  1  0  0  0  0
 28 29  1  0  0  0  0
 30 31  1  0  0  0  0
 31 32  1  0  0  0  0
 31 33  1  0  0  0  0
 31 34  1  0  0  0  0
M  END
>  <IDNUMBER>
AN-566/21182004

>  <NAME>
Pterocarpin methylether

>  <ADD_INFO>
http://www.specs.net/enter.php?specsid=AN-566/21182004

>  <H_ACCEPTORS>
0

>  <H_DONORS>
0

>  <ROTATABLE_BONDS>
1

>  <LOGP>
3.8399999

>  <LOGS>
-4.6500001

>  <TPSA>
46.150002

>  <PRICE>
N06

$$$$
AN-566/21182005
  MOE2011           3D

 29 31  0  0  0  0  0  0  0  0999 V2000
   -2.2500    0.5600   -0.0280 C   0  0  0  0  0  0  0  0  0  0  0  0
    0.1520    0.4990   -0.0410 C   0  0  0  0  0  0  0  0  0  0  0  0
   -3.4240    1.3390   -0.0240 O   0  0  0  0  0  0  0  0  0  0  0  0
    1.3060    1.2290   -0.0600 O   0  0  0  0  0  0  0  0  0  0  0  0
   -1.0330    1.2350   -0.0430 C   0  0  0  0  0  0  0  0  0  0  0  0
   -1.0040    2.3200   -0.0550 H   0  0  0  0  0  0  0  0  0  0  0  0
   -2.3140   -0.8310   -0.0150 C   0  0  0  0  0  0  0  0  0  0  0  0
    0.1140   -0.8990   -0.0260 C   0  0  0  0  0  0  0  0  0  0  0  0
   -4.6810    0.7490   -0.0040 C   0  0  0  0  0  0  0  0  0  0  0  0
   -3.6180   -1.4730   -0.0010 C   0  0  0  0  0  0  0  0  0  0  0  0
   -3.6750   -2.5560    0.0050 H   0  0  0  0  0  0  0  0  0  0  0  0
    1.3570   -1.6530   -0.0250 C   0  0  0  0  0  0  0  0  0  0  0  0
    1.3360   -2.7370   -0.0300 H   0  0  0  0  0  0  0  0  0  0  0  0
    2.5730    0.5400    0.0010 C   0  0  0  0  0  0  0  0  0  0  0  0
   -1.1230   -1.5630   -0.0150 C   0  0  0  0  0  0  0  0  0  0  0  0
   -1.1540   -2.6500   -0.0050 H   0  0  0  0  0  0  0  0  0  0  0  0
   -4.7250   -0.7250    0.0040 C   0  0  0  0  0  0  0  0  0  0  0  0
   -5.7120   -1.1720    0.0150 H   0  0  0  0  0  0  0  0  0  0  0  0
    2.5050   -0.9710   -0.0110 C   0  0  0  0  0  0  0  0  0  0  0  0
    3.4450   -1.5180   -0.0030 H   0  0  0  0  0  0  0  0  0  0  0  0
   -5.7140    1.4070    0.0050 O   0  0  0  0  0  0  0  0  0  0  0  0
    3.3780    1.0170   -1.2140 C   0  0  0  0  0  0  0  0  0  0  0  0
    4.3920    0.6030   -1.2240 H   0  0  0  0  0  0  0  0  0  0  0  0
    3.4530    2.1110   -1.2270 H   0  0  0  0  0  0  0  0  0  0  0  0
    2.8800    0.7310   -2.1490 H   0  0  0  0  0  0  0  0  0  0  0  0
    3.2590    1.0060    1.2900 C   0  0  0  0  0  0  0  0  0  0  0  0
    4.2660    0.5880    1.3930 H   0  0  0  0  0  0  0  0  0  0  0  0
    2.6740    0.7150    2.1710 H   0  0  0  0  0  0  0  0  0  0  0  0
    3.3350    2.0990    1.3190 H   0  0  0  0  0  0  0  0  0  0  0  0
  1  3  1  0  0  0  0
  1  5  2  0  0  0  0
  1  7  1  0  0  0  0
  2  4  1  0  0  0  0
  2  5  1  0  0  0  0
  2  8  2  0  0  0  0
  3  9  1  0  0  0  0
  4 14  1  0  0  0  0
  5  6  1  0  0  0  0
  7 10  1  0  0  0  0
  7 15  2  0  0  0  0
  8 12  1  0  0  0  0
  8 15  1  0  0  0  0
  9 17  1  0  0  0  0
  9 21  2  0  0  0  0
 10 11  1  0  0  0  0
 10 17  2  0  0  0  0
 12 13  1  0  0  0  0
 12 19  2  0  0  0  0
 14 19  1  0  0  0  0
 14 22  1  0  0  0  0
 14 26  1  0  0  0  0
 15 16  1  0  0  0  0
 17 18  1  0  0  0  0
 19 20  1  0  0  0  0
 22 23  1  0  0  0  0
 22 24  1  0  0  0  0
 22 25  1  0  0  0  0
 26 27  1  0  0  0  0
 26 28  1  0  0  0  0
 26 29  1  0  0  0  0
M  END
>  <IDNUMBER>
AN-566/21182005

>  <NAME>
Xanthyletin

>  <ADD_INFO>
http://www.specs.net/enter.php?specsid=AN-566/21182005

>  <H_ACCEPTORS>
1

>  <H_DONORS>
0

>  <ROTATABLE_BONDS>
0

>  <LOGP>
3.1800001

>  <LOGS>
-3.5799999

>  <TPSA>
35.529999

>  <PRICE>
N07

$$$$
AN-566/21182007
  MOE2011           3D

116124  0  0  1  0  0  0  0  0999 V2000
    0.1580    0.8490   -1.0790 C   0  0  1  0  0  0  0  0  0  0  0  0
   -1.2210    0.1840   -0.6320 C   0  0  2  0  0  0  0  0  0  0  0  0
    1.3000   -1.5190   -1.0390 C   0  0  1  0  0  0  0  0  0  0  0  0
   -1.2870   -1.4200   -0.7680 C   0  0  1  0  0  0  0  0  0  0  0  0
    0.1590    2.3640   -0.6900 C   0  0  2  0  0  0  0  0  0  0  0  0
   -0.0810   -1.9980   -1.6030 C   0  0  3  0  0  0  0  0  0  0  0  0
    3.7920   -2.6580    1.9600 C   0  0  3  0  0  0  0  0  0  0  0  0
    0.0220    2.6330    0.8450 C   0  0  2  0  0  0  0  0  0  0  0  0
    1.4110    0.0100   -0.7910 C   0  0  1  0  0  0  0  0  0  0  0  0
    0.1010   -3.2230    0.2640 C   0  0  1  0  0  0  0  0  0  0  0  0
    5.0600   -2.0300    2.2850 O   0  0  0  0  0  0  0  0  0  0  0  0
    1.4420   -2.4200    0.2470 C   0  0  2  0  0  0  0  0  0  0  0  0
   -1.3040    1.6880   -2.3190 C   0  0  3  0  0  0  0  0  0  0  0  0
   -1.0730   -2.2320    0.5890 C   0  0  2  0  0  0  0  0  0  0  0  0
    2.6160   -1.8410    2.3730 C   0  0  0  0  0  0  0  0  0  0  0  0
    4.7320   -2.0810    0.9010 C   0  0  3  0  0  0  0  0  0  0  0  0
   -0.0740    1.0070   -2.4870 O   0  0  0  0  0  0  0  0  0  0  0  0
    1.4520    2.7630    1.4700 C   0  0  1  0  0  0  0  0  0  0  0  0
   -2.1250    0.7520   -1.6450 O   0  0  0  0  0  0  0  0  0  0  0  0
   -1.7760    0.7450    0.7350 C   0  0  1  0  0  0  0  0  0  0  0  0
   -1.0560    2.7750   -1.4110 O   0  0  0  0  0  0  0  0  0  0  0  0
   -0.0580   -3.4900   -1.2300 C   0  0  0  0  0  0  0  0  0  0  0  0
   -0.9570   -4.0300   -1.5230 H   0  0  0  0  0  0  0  0  0  0  0  0
    0.7840   -4.0320   -1.6780 H   0  0  0  0  0  0  0  0  0  0  0  0
    1.5950   -1.6910    1.4800 O   0  0  0  0  0  0  0  0  0  0  0  0
    2.6840    0.5720   -1.2390 O   0  0  0  0  0  0  0  0  0  0  0  0
   -0.7020    1.4520    1.5570 C   0  0  0  0  0  0  0  0  0  0  0  0
   -1.1560    1.8160    2.4880 H   0  0  0  0  0  0  0  0  0  0  0  0
    0.0270    0.6910    1.8580 H   0  0  0  0  0  0  0  0  0  0  0  0
    1.2180    3.2720   -1.3380 C   0  0  0  0  0  0  0  0  0  0  0  0
    0.7580    4.2390   -1.5890 H   0  0  0  0  0  0  0  0  0  0  0  0
    1.5480    2.8680   -2.2990 H   0  0  0  0  0  0  0  0  0  0  0  0
    2.2480    3.7460    0.7920 O   0  0  0  0  0  0  0  0  0  0  0  0
    2.4310    3.6310   -0.5360 C   0  0  0  0  0  0  0  0  0  0  0  0
    1.4780    3.0560    2.9490 C   0  0  0  0  0  0  0  0  0  0  0  0
    3.0240    0.6980   -2.5590 C   0  0  0  0  0  0  0  0  0  0  0  0
   -4.1240    1.2460    0.5940 C   0  0  0  0  0  0  0  0  0  0  0  0
   -2.8430    1.7050    0.5500 O   0  0  0  0  0  0  0  0  0  0  0  0
   -2.3180   -2.7940    1.3280 C   0  0  0  0  0  0  0  0  0  0  0  0
   -3.0130   -1.9630    1.4510 H   0  0  0  0  0  0  0  0  0  0  0  0
   -1.9930   -3.0980    2.3320 H   0  0  0  0  0  0  0  0  0  0  0  0
   -3.1120   -3.9670    0.7740 C   0  0  0  0  0  0  0  0  0  0  0  0
    2.3480   -1.9940   -1.9070 O   0  0  0  0  0  0  0  0  0  0  0  0
    3.1840   -1.5980   -1.6140 H   0  0  0  0  0  0  0  0  0  0  0  0
    1.5120    4.2970    3.5590 C   0  0  0  0  0  0  0  0  0  0  0  0
    1.5170    5.3090    3.1790 H   0  0  0  0  0  0  0  0  0  0  0  0
    2.5670   -1.3120    3.4770 O   0  0  0  0  0  0  0  0  0  0  0  0
    1.5230    2.1190    4.0240 C   0  0  0  0  0  0  0  0  0  0  0  0
    1.5350    1.0400    3.9620 H   0  0  0  0  0  0  0  0  0  0  0  0
    1.5450    4.1800    4.9090 O   0  0  0  0  0  0  0  0  0  0  0  0
    2.3360    0.4010   -3.5210 O   0  0  0  0  0  0  0  0  0  0  0  0
   -0.2150   -1.7960   -2.9890 O   0  0  0  0  0  0  0  0  0  0  0  0
   -0.8440   -2.4440   -3.3440 H   0  0  0  0  0  0  0  0  0  0  0  0
   -4.4650    0.1170    0.9200 O   0  0  0  0  0  0  0  0  0  0  0  0
    3.4870    3.9590   -1.0670 O   0  0  0  0  0  0  0  0  0  0  0  0
    1.5520    2.8530    5.1870 C   0  0  0  0  0  0  0  0  0  0  0  0
    1.5840    2.5950    6.2360 H   0  0  0  0  0  0  0  0  0  0  0  0
   -2.6960   -4.7140   -0.1030 O   0  0  0  0  0  0  0  0  0  0  0  0
    3.8030   -4.1250    2.2850 C   0  0  0  0  0  0  0  0  0  0  0  0
    3.4720   -4.7110    1.4230 H   0  0  0  0  0  0  0  0  0  0  0  0
    3.1310   -4.3410    3.1220 H   0  0  0  0  0  0  0  0  0  0  0  0
    4.8010   -4.4760    2.5700 H   0  0  0  0  0  0  0  0  0  0  0  0
   -2.6290   -1.7980   -1.4600 C   0  0  0  0  0  0  0  0  0  0  0  0
   -2.7300   -2.8670   -1.6480 H   0  0  0  0  0  0  0  0  0  0  0  0
   -2.7250   -1.3360   -2.4490 H   0  0  0  0  0  0  0  0  0  0  0  0
   -3.4890   -1.4810   -0.8650 H   0  0  0  0  0  0  0  0  0  0  0  0
   -0.7660    3.9520    1.0760 C   0  0  0  0  0  0  0  0  0  0  0  0
   -0.9480    4.1340    2.1400 H   0  0  0  0  0  0  0  0  0  0  0  0
   -1.7510    3.9420    0.6000 H   0  0  0  0  0  0  0  0  0  0  0  0
   -0.2250    4.8170    0.6800 H   0  0  0  0  0  0  0  0  0  0  0  0
    4.4480    1.2140   -2.6700 C   0  0  0  0  0  0  0  0  0  0  0  0
    4.7080    1.7400   -1.7440 H   0  0  0  0  0  0  0  0  0  0  0  0
   -5.0770    2.3620    0.2070 C   0  0  3  0  0  0  0  0  0  0  0  0
    0.2290   -4.4510    1.1510 C   0  0  0  0  0  0  0  0  0  0  0  0
   -0.6320   -5.1180    1.0820 H   0  0  0  0  0  0  0  0  0  0  0  0
    0.3510   -4.1660    2.2010 H   0  0  0  0  0  0  0  0  0  0  0  0
    1.1010   -5.0490    0.8650 H   0  0  0  0  0  0  0  0  0  0  0  0
   -1.9160    2.1540   -3.6130 C   0  0  0  0  0  0  0  0  0  0  0  0
   -2.8710    2.6580   -3.4340 H   0  0  0  0  0  0  0  0  0  0  0  0
   -2.0990    1.3100   -4.2860 H   0  0  0  0  0  0  0  0  0  0  0  0
   -1.2530    2.8590   -4.1250 H   0  0  0  0  0  0  0  0  0  0  0  0
   -4.3300   -4.1950    1.3330 O   0  0  0  0  0  0  0  0  0  0  0  0
    5.6360   -2.9260    0.0760 C   0  0  0  0  0  0  0  0  0  0  0  0
    5.0950   -3.3130   -0.7930 H   0  0  0  0  0  0  0  0  0  0  0  0
    6.0460   -3.7750    0.6310 H   0  0  0  0  0  0  0  0  0  0  0  0
    6.4780   -2.3280   -0.2870 H   0  0  0  0  0  0  0  0  0  0  0  0
   -6.2680    1.8230   -0.5980 C   0  0  0  0  0  0  0  0  0  0  0  0
   -6.7830    1.0300   -0.0410 H   0  0  0  0  0  0  0  0  0  0  0  0
   -6.9970    2.6280   -0.7520 H   0  0  0  0  0  0  0  0  0  0  0  0
    5.4000    0.0400   -2.8560 C   0  0  0  0  0  0  0  0  0  0  0  0
    5.1610   -0.5300   -3.7610 H   0  0  0  0  0  0  0  0  0  0  0  0
    5.3370   -0.6500   -2.0090 H   0  0  0  0  0  0  0  0  0  0  0  0
    6.4370    0.3850   -2.9330 H   0  0  0  0  0  0  0  0  0  0  0  0
    4.5620    2.2040   -3.8260 C   0  0  0  0  0  0  0  0  0  0  0  0
    4.3650    1.7200   -4.7890 H   0  0  0  0  0  0  0  0  0  0  0  0
    5.5650    2.6400   -3.8650 H   0  0  0  0  0  0  0  0  0  0  0  0
    3.8400    3.0200   -3.7160 H   0  0  0  0  0  0  0  0  0  0  0  0
   -5.5430    3.0620    1.4800 C   0  0  0  0  0  0  0  0  0  0  0  0
   -6.2010    3.9040    1.2440 H   0  0  0  0  0  0  0  0  0  0  0  0
   -4.6890    3.4500    2.0470 H   0  0  0  0  0  0  0  0  0  0  0  0
   -6.0880    2.3750    2.1360 H   0  0  0  0  0  0  0  0  0  0  0  0
   -4.8680   -3.3840    2.3880 C   0  0  0  0  0  0  0  0  0  0  0  0
   -5.7620   -3.8860    2.7690 H   0  0  0  0  0  0  0  0  0  0  0  0
   -5.1640   -2.4080    1.9940 H   0  0  0  0  0  0  0  0  0  0  0  0
   -4.1570   -3.2850    3.2120 H   0  0  0  0  0  0  0  0  0  0  0  0
   -5.8560    1.2830   -1.9620 C   0  0  0  0  0  0  0  0  0  0  0  0
   -5.1820    0.4270   -1.8690 H   0  0  0  0  0  0  0  0  0  0  0  0
   -5.3530    2.0550   -2.5530 H   0  0  0  0  0  0  0  0  0  0  0  0
   -6.7400    0.9540   -2.5190 H   0  0  0  0  0  0  0  0  0  0  0  0
    1.5180    0.1210    0.2830 H   0  0  0  0  0  0  0  0  0  0  0  0
    2.2690   -3.1230    0.1090 H   0  0  0  0  0  0  0  0  0  0  0  0
   -0.6710   -1.5280    1.3230 H   0  0  0  0  0  0  0  0  0  0  0  0
    4.4750   -1.1490    0.4170 H   0  0  0  0  0  0  0  0  0  0  0  0
    1.9970    1.8210    1.3500 H   0  0  0  0  0  0  0  0  0  0  0  0
   -2.1600   -0.0510    1.3690 H   0  0  0  0  0  0  0  0  0  0  0  0
   -4.5360    3.0830   -0.4190 H   0  0  0  0  0  0  0  0  0  0  0  0
  1  2  1  0  0  0  0
  1  5  1  0  0  0  0
  1  9  1  0  0  0  0
  1 17  1  0  0  0  0
  2  4  1  0  0  0  0
  2 19  1  0  0  0  0
  2 20  1  0  0  0  0
  3  6  1  0  0  0  0
  3  9  1  0  0  0  0
  3 12  1  0  0  0  0
  3 43  1  0  0  0  0
  4  6  1  0  0  0  0
  4 14  1  0  0  0  0
  4 63  1  0  0  0  0
  5  8  1  0  0  0  0
  5 21  1  0  0  0  0
  5 30  1  0  0  0  0
  6 22  1  0  0  0  0
  6 52  1  0  0  0  0
  7 11  1  0  0  0  0
  7 15  1  0  0  0  0
  7 16  1  0  0  0  0
  7 59  1  0  0  0  0
  8 18  1  0  0  0  0
  8 27  1  0  0  0  0
  8 67  1  0  0  0  0
  9 26  1  0  0  0  0
  9110  1  0  0  0  0
 10 12  1  0  0  0  0
 10 14  1  0  0  0  0
 10 22  1  0  0  0  0
 10 74  1  0  0  0  0
 11 16  1  0  0  0  0
 12 25  1  0  0  0  0
 12111  1  0  0  0  0
 13 17  1  0  0  0  0
 13 19  1  0  0  0  0
 13 21  1  0  0  0  0
 13 78  1  0  0  0  0
 14 39  1  0  0  0  0
 14112  1  0  0  0  0
 15 25  1  0  0  0  0
 15 47  2  0  0  0  0
 16 83  1  0  0  0  0
 16113  1  0  0  0  0
 18 33  1  0  0  0  0
 18 35  1  0  0  0  0
 18114  1  0  0  0  0
 20 27  1  0  0  0  0
 20 38  1  0  0  0  0
 20115  1  0  0  0  0
 22 23  1  0  0  0  0
 22 24  1  0  0  0  0
 26 36  1  0  0  0  0
 27 28  1  0  0  0  0
 27 29  1  0  0  0  0
 30 31  1  0  0  0  0
 30 32  1  0  0  0  0
 30 34  1  0  0  0  0
 33 34  1  0  0  0  0
 34 55  2  0  0  0  0
 35 45  2  0  0  0  0
 35 48  1  0  0  0  0
 36 51  2  0  0  0  0
 36 71  1  0  0  0  0
 37 38  1  0  0  0  0
 37 54  2  0  0  0  0
 37 73  1  0  0  0  0
 39 40  1  0  0  0  0
 39 41  1  0  0  0  0
 39 42  1  0  0  0  0
 42 58  2  0  0  0  0
 42 82  1  0  0  0  0
 43 44  1  0  0  0  0
 45 46  1  0  0  0  0
 45 50  1  0  0  0  0
 48 49  1  0  0  0  0
 48 56  2  0  0  0  0
 50 56  1  0  0  0  0
 52 53  1  0  0  0  0
 56 57  1  0  0  0  0
 59 60  1  0  0  0  0
 59 61  1  0  0  0  0
 59 62  1  0  0  0  0
 63 64  1  0  0  0  0
 63 65  1  0  0  0  0
 63 66  1  0  0  0  0
 67 68  1  0  0  0  0
 67 69  1  0  0  0  0
 67 70  1  0  0  0  0
 71 72  1  0  0  0  0
 71 90  1  0  0  0  0
 71 94  1  0  0  0  0
 73 87  1  0  0  0  0
 73 98  1  0  0  0  0
 73116  1  0  0  0  0
 74 75  1  0  0  0  0
 74 76  1  0  0  0  0
 74 77  1  0  0  0  0
 78 79  1  0  0  0  0
 78 80  1  0  0  0  0
 78 81  1  0  0  0  0
 82102  1  0  0  0  0
 83 84  1  0  0  0  0
 83 85  1  0  0  0  0
 83 86  1  0  0  0  0
 87 88  1  0  0  0  0
 87 89  1  0  0  0  0
 87106  1  0  0  0  0
 90 91  1  0  0  0  0
 90 92  1  0  0  0  0
 90 93  1  0  0  0  0
 94 95  1  0  0  0  0
 94 96  1  0  0  0  0
 94 97  1  0  0  0  0
 98 99  1  0  0  0  0
 98100  1  0  0  0  0
 98101  1  0  0  0  0
102103  1  0  0  0  0
102104  1  0  0  0  0
102105  1  0  0  0  0
106107  1  0  0  0  0
106108  1  0  0  0  0
106109  1  0  0  0  0
M  END
>  <IDNUMBER>
AN-566/21182007

>  <NAME>
Entandrophragmin

>  <ADD_INFO>
http://www.specs.net/enter.php?specsid=AN-566/21182007

>  <H_ACCEPTORS>
16

>  <H_DONORS>
2

>  <ROTATABLE_BONDS>
14

>  <LOGP>
4.6900001

>  <LOGS>
-9.3599997

>  <TPSA>
225.32001

>  <PRICE>
N05

$$$$
AN-668/21185016
  MOE2011           3D

 77 82  0  0  1  0  0  0  0  0999 V2000
   -0.4070   -0.4440   -0.6110 C   0  0  2  0  0  0  0  0  0  0  0  0
    1.7140    0.3780    1.3720 C   0  0  2  0  0  0  0  0  0  0  0  0
   -3.0840    0.2620   -0.4030 C   0  0  2  0  0  0  0  0  0  0  0  0
    3.2750    0.1550   -1.1610 C   0  0  1  0  0  0  0  0  0  0  0  0
    0.4310   -0.4780    1.6150 C   0  0  2  0  0  0  0  0  0  0  0  0
   -1.6910   -0.0690   -0.1500 C   0  0  3  0  0  0  0  0  0  0  0  0
   -0.4700    0.4800    0.9010 C   0  0  1  0  0  0  0  0  0  0  0  0
    1.7680   -0.2240   -0.0160 C   0  0  2  0  0  0  0  0  0  0  0  0
    0.9040    0.2340   -1.1470 C   0  0  1  0  0  0  0  0  0  0  0  0
    3.4740    0.2480    1.6010 C   0  0  2  0  0  0  0  0  0  0  0  0
   -1.3680    1.9050    0.9170 N   0  3  3  0  0  0  0  0  0  0  0  0
   -1.1220    2.4560    0.0780 H   0  0  0  0  0  0  0  0  0  0  0  0
    2.4830   -1.3320   -0.7380 C   0  0  1  0  0  0  0  0  0  0  0  0
    4.3570   -0.0730    0.0130 C   0  0  2  0  0  0  0  0  0  0  0  0
   -1.3040   -0.7400    1.5480 C   0  0  1  0  0  0  0  0  0  0  0  0
   -3.0810    1.3810    0.7140 C   0  0  0  0  0  0  0  0  0  0  0  0
   -3.3720    1.0440    1.7100 H   0  0  0  0  0  0  0  0  0  0  0  0
   -3.5950    2.3040    0.4390 H   0  0  0  0  0  0  0  0  0  0  0  0
    2.0910    0.0330   -2.2430 C   0  0  0  0  0  0  0  0  0  0  0  0
    1.9880    0.9100   -2.9070 H   0  0  0  0  0  0  0  0  0  0  0  0
    2.0830   -0.7670   -2.9900 H   0  0  0  0  0  0  0  0  0  0  0  0
   -0.9640   -1.8500   -1.1110 C   0  0  2  0  0  0  0  0  0  0  0  0
   -3.6400   -1.1480   -0.3980 C   0  0  1  0  0  0  0  0  0  0  0  0
   -2.6020   -2.1420   -1.1090 C   0  0  0  0  0  0  0  0  0  0  0  0
   -2.8760   -2.1370   -2.1740 H   0  0  0  0  0  0  0  0  0  0  0  0
   -2.8130   -3.1490   -0.7450 H   0  0  0  0  0  0  0  0  0  0  0  0
    3.6240    1.3820   -1.7330 O   0  0  0  0  0  0  0  0  0  0  0  0
    4.4450    1.6890   -1.2900 H   0  0  0  0  0  0  0  0  0  0  0  0
    1.5200    1.7950    1.2320 O   0  0  0  0  0  0  0  0  0  0  0  0
    2.2500    2.1740    0.7060 H   0  0  0  0  0  0  0  0  0  0  0  0
   -3.3880    0.9020   -1.7910 C   0  0  0  0  0  0  0  0  0  0  0  0
   -4.4730    1.0110   -1.9050 H   0  0  0  0  0  0  0  0  0  0  0  0
   -3.0120    0.2670   -2.6020 H   0  0  0  0  0  0  0  0  0  0  0  0
    3.7430   -0.8290    2.4920 O   0  0  0  0  0  0  0  0  0  0  0  0
    4.7010   -0.8200    2.6670 H   0  0  0  0  0  0  0  0  0  0  0  0
    1.8350   -2.2010   -1.6290 O   0  0  0  0  0  0  0  0  0  0  0  0
    1.1960   -2.7070   -1.0810 H   0  0  0  0  0  0  0  0  0  0  0  0
    5.3550    0.9660   -0.0560 O   0  0  0  0  0  0  0  0  0  0  0  0
   -1.6480   -2.1280    1.6660 O   0  0  0  0  0  0  0  0  0  0  0  0
   -1.2530    2.8180    2.1190 C   0  0  0  0  0  0  0  0  0  0  0  0
   -1.7080    2.3080    2.9740 H   0  0  0  0  0  0  0  0  0  0  0  0
   -0.1930    2.9870    2.3160 H   0  0  0  0  0  0  0  0  0  0  0  0
   -0.2060   -2.9090   -0.4900 O   0  0  0  0  0  0  0  0  0  0  0  0
   -3.9570   -1.5720    0.9180 O   0  0  0  0  0  0  0  0  0  0  0  0
   -3.1930   -2.1020    1.2410 H   0  0  0  0  0  0  0  0  0  0  0  0
   -2.7930    2.1990   -1.9040 O   0  0  0  0  0  0  0  0  0  0  0  0
   -1.5590   -2.6300    3.0010 C   0  0  0  0  0  0  0  0  0  0  0  0
   -1.8710   -3.6780    2.9870 H   0  0  0  0  0  0  0  0  0  0  0  0
   -2.2340   -2.0770    3.6610 H   0  0  0  0  0  0  0  0  0  0  0  0
   -0.5380   -2.5830    3.3850 H   0  0  0  0  0  0  0  0  0  0  0  0
    6.5530    0.5050   -0.6820 C   0  0  0  0  0  0  0  0  0  0  0  0
    7.2410    1.3510   -0.7680 H   0  0  0  0  0  0  0  0  0  0  0  0
    6.3400    0.1190   -1.6840 H   0  0  0  0  0  0  0  0  0  0  0  0
    7.0250   -0.2690   -0.0690 H   0  0  0  0  0  0  0  0  0  0  0  0
   -0.5510   -4.2330   -0.9090 C   0  0  0  0  0  0  0  0  0  0  0  0
    0.3070   -4.8810   -0.7070 H   0  0  0  0  0  0  0  0  0  0  0  0
   -0.7700   -4.2680   -1.9800 H   0  0  0  0  0  0  0  0  0  0  0  0
   -1.3900   -4.6100   -0.3210 H   0  0  0  0  0  0  0  0  0  0  0  0
   -3.0220    2.7740   -3.1860 C   0  0  0  0  0  0  0  0  0  0  0  0
   -2.5560    3.7630   -3.2060 H   0  0  0  0  0  0  0  0  0  0  0  0
   -4.0950    2.8880   -3.3680 H   0  0  0  0  0  0  0  0  0  0  0  0
   -2.5680    2.1570   -3.9670 H   0  0  0  0  0  0  0  0  0  0  0  0
   -1.9250    4.1480    1.8350 C   0  0  0  0  0  0  0  0  0  0  0  0
   -3.0080    4.0420    1.7270 H   0  0  0  0  0  0  0  0  0  0  0  0
   -1.5300    4.6070    0.9230 H   0  0  0  0  0  0  0  0  0  0  0  0
   -1.7470    4.8400    2.6640 H   0  0  0  0  0  0  0  0  0  0  0  0
    0.7480    1.3220   -1.1460 H   0  0  0  0  0  0  0  0  0  0  0  0
    2.5290   -0.7430    0.4880 H   0  0  0  0  0  0  0  0  0  0  0  0
    0.6360   -1.4130    2.1340 H   0  0  0  0  0  0  0  0  0  0  0  0
   -1.4180    0.8450   -0.7320 H   0  0  0  0  0  0  0  0  0  0  0  0
   -0.3310    0.7800    1.9860 H   0  0  0  0  0  0  0  0  0  0  0  0
    3.8550    1.1880    2.0160 H   0  0  0  0  0  0  0  0  0  0  0  0
    3.1840   -2.0410   -0.2360 H   0  0  0  0  0  0  0  0  0  0  0  0
    4.8440   -1.0540    0.0710 H   0  0  0  0  0  0  0  0  0  0  0  0
   -1.8760   -0.2340    2.3570 H   0  0  0  0  0  0  0  0  0  0  0  0
   -0.7060   -1.8870   -2.1800 H   0  0  0  0  0  0  0  0  0  0  0  0
   -4.5880   -1.1970   -0.9460 H   0  0  0  0  0  0  0  0  0  0  0  0
  1  6  1  0  0  0  0
  1  7  1  0  0  0  0
  1  9  1  0  0  0  0
  1 22  1  0  0  0  0
  2  5  1  0  0  0  0
  2  8  1  0  0  0  0
  2 10  1  0  0  0  0
  2 29  1  0  0  0  0
  3  6  1  0  0  0  0
  3 16  1  0  0  0  0
  3 23  1  0  0  0  0
  3 31  1  0  0  0  0
  4 13  1  0  0  0  0
  4 14  1  0  0  0  0
  4 19  1  0  0  0  0
  4 27  1  0  0  0  0
  5  7  1  0  0  0  0
  5 15  1  0  0  0  0
  5 69  1  0  0  0  0
  6 15  1  0  0  0  0
  6 70  1  0  0  0  0
  7 11  1  0  0  0  0
  7 71  1  0  0  0  0
  8  9  1  0  0  0  0
  8 13  1  0  0  0  0
  8 68  1  0  0  0  0
  9 19  1  0  0  0  0
  9 67  1  0  0  0  0
 10 14  1  0  0  0  0
 10 34  1  0  0  0  0
 10 72  1  0  0  0  0
 11 12  1  0  0  0  0
 11 16  1  0  0  0  0
 11 40  1  0  0  0  0
 13 36  1  0  0  0  0
 13 73  1  0  0  0  0
 14 38  1  0  0  0  0
 14 74  1  0  0  0  0
 15 39  1  0  0  0  0
 15 75  1  0  0  0  0
 16 17  1  0  0  0  0
 16 18  1  0  0  0  0
 19 20  1  0  0  0  0
 19 21  1  0  0  0  0
 22 24  1  0  0  0  0
 22 43  1  0  0  0  0
 22 76  1  0  0  0  0
 23 24  1  0  0  0  0
 23 44  1  0  0  0  0
 23 77  1  0  0  0  0
 24 25  1  0  0  0  0
 24 26  1  0  0  0  0
 27 28  1  0  0  0  0
 29 30  1  0  0  0  0
 31 32  1  0  0  0  0
 31 33  1  0  0  0  0
 31 46  1  0  0  0  0
 34 35  1  0  0  0  0
 36 37  1  0  0  0  0
 38 51  1  0  0  0  0
 39 47  1  0  0  0  0
 40 41  1  0  0  0  0
 40 42  1  0  0  0  0
 40 63  1  0  0  0  0
 43 55  1  0  0  0  0
 44 45  1  0  0  0  0
 46 59  1  0  0  0  0
 47 48  1  0  0  0  0
 47 49  1  0  0  0  0
 47 50  1  0  0  0  0
 51 52  1  0  0  0  0
 51 53  1  0  0  0  0
 51 54  1  0  0  0  0
 55 56  1  0  0  0  0
 55 57  1  0  0  0  0
 55 58  1  0  0  0  0
 59 60  1  0  0  0  0
 59 61  1  0  0  0  0
 59 62  1  0  0  0  0
 63 64  1  0  0  0  0
 63 65  1  0  0  0  0
 63 66  1  0  0  0  0
M  CHG  1  11   1
M  END
>  <IDNUMBER>
AN-668/21185016

>  <NAME>
Aconine

>  <ADD_INFO>
http://www.specs.net/enter.php?specsid=AN-668/21185016

>  <H_ACCEPTORS>
10

>  <H_DONORS>
5

>  <ROTATABLE_BONDS>
6

>  <LOGP>
-3.3299999

>  <LOGS>
0.30000001

>  <TPSA>
141.31

>  <PRICE>
N07

$$$$
AN-706/21186117
  MOE2011           3D

 97103  0  0  1  0  0  0  0  0999 V2000
    1.9970   -0.6880    0.8210 C   0  0  2  0  0  0  0  0  0  0  0  0
   -0.6060    0.0400   -0.4790 C   0  0  2  0  0  0  0  0  0  0  0  0
    3.8130    1.1280    0.8090 C   0  0  2  0  0  0  0  0  0  0  0  0
    0.8370    0.6090   -0.8150 C   0  0  3  0  0  0  0  0  0  0  0  0
    2.3110    0.8210    1.1600 C   0  0  1  0  0  0  0  0  0  0  0  0
    1.8830   -0.5200   -0.7000 C   0  0  1  0  0  0  0  0  0  0  0  0
   -0.6300   -0.3680    1.0280 C   0  0  2  0  0  0  0  0  0  0  0  0
   -1.3160   -2.5680    0.6710 C   0  0  2  0  0  0  0  0  0  0  0  0
    0.6200   -1.1790    1.3990 C   0  0  1  0  0  0  0  0  0  0  0  0
   -1.7730   -1.3150    1.4180 C   0  0  2  0  0  0  0  0  0  0  0  0
    3.2570   -0.1880   -1.2850 N   0  3  2  0  0  0  0  0  0  0  0  0
    3.8340   -0.9990   -0.9470 H   0  0  0  0  0  0  0  0  0  0  0  0
    1.2720    1.6220    0.2820 C   0  0  1  0  0  0  0  0  0  0  0  0
    3.9900    1.0230   -0.7240 C   0  0  0  0  0  0  0  0  0  0  0  0
    5.0380    0.9280   -1.0280 H   0  0  0  0  0  0  0  0  0  0  0  0
    3.6110    1.8920   -1.2680 H   0  0  0  0  0  0  0  0  0  0  0  0
   -1.0250   -1.1160   -1.4550 C   0  0  0  0  0  0  0  0  0  0  0  0
   -1.7580   -0.7440   -2.1790 H   0  0  0  0  0  0  0  0  0  0  0  0
   -0.1760   -1.4000   -2.0840 H   0  0  0  0  0  0  0  0  0  0  0  0
    3.1010   -1.7010    1.2740 C   0  0  2  0  0  0  0  0  0  0  0  0
    0.2030   -2.6180    0.9870 C   0  0  0  0  0  0  0  0  0  0  0  0
    0.4020   -3.3020    1.8210 H   0  0  0  0  0  0  0  0  0  0  0  0
    0.7680   -3.0070    0.1340 H   0  0  0  0  0  0  0  0  0  0  0  0
   -3.0700   -0.8600    1.0230 O   0  0  0  0  0  0  0  0  0  0  0  0
    4.7800    0.1570    1.5820 C   0  0  1  0  0  0  0  0  0  0  0  0
   -1.5900   -2.4250   -0.8480 C   0  0  2  0  0  0  0  0  0  0  0  0
   -3.6660    0.0460    1.8350 C   0  0  0  0  0  0  0  0  0  0  0  0
    4.0860   -1.0360    2.2270 C   0  0  0  0  0  0  0  0  0  0  0  0
    3.5490   -0.7090    3.1260 H   0  0  0  0  0  0  0  0  0  0  0  0
    4.8400   -1.7590    2.5580 H   0  0  0  0  0  0  0  0  0  0  0  0
   -1.5970    1.1150   -0.5580 O   0  0  0  0  0  0  0  0  0  0  0  0
   -1.8580    1.7630   -1.7250 C   0  0  0  0  0  0  0  0  0  0  0  0
   -5.0190    0.3940    1.3280 C   0  0  0  0  0  0  0  0  0  0  0  0
   -3.1820    0.5310    2.8460 O   0  0  0  0  0  0  0  0  0  0  0  0
   -1.9110   -3.7370    1.2210 O   0  0  0  0  0  0  0  0  0  0  0  0
   -1.5530   -4.5160    0.7600 H   0  0  0  0  0  0  0  0  0  0  0  0
    4.2300    2.5620    1.2540 C   0  0  0  0  0  0  0  0  0  0  0  0
    4.1310    2.6590    2.3430 H   0  0  0  0  0  0  0  0  0  0  0  0
    3.6300    3.3530    0.8070 H   0  0  0  0  0  0  0  0  0  0  0  0
   -1.2790    1.5870   -2.7870 O   0  0  0  0  0  0  0  0  0  0  0  0
   -5.7600    1.3560    2.0240 C   0  0  0  0  0  0  0  0  0  0  0  0
   -5.3540    1.8330    2.9130 H   0  0  0  0  0  0  0  0  0  0  0  0
   -5.5750   -0.2040    0.1900 C   0  0  0  0  0  0  0  0  0  0  0  0
   -5.0250   -0.9560   -0.3720 H   0  0  0  0  0  0  0  0  0  0  0  0
    1.8230    2.8030   -0.2790 O   0  0  0  0  0  0  0  0  0  0  0  0
    3.3310   -0.2090   -2.7950 C   0  0  0  0  0  0  0  0  0  0  0  0
    2.5790    0.4830   -3.1840 H   0  0  0  0  0  0  0  0  0  0  0  0
    4.3250    0.1570   -3.0750 H   0  0  0  0  0  0  0  0  0  0  0  0
    3.7620   -2.2270    0.1090 O   0  0  0  0  0  0  0  0  0  0  0  0
    5.8300   -0.3150    0.7360 O   0  0  0  0  0  0  0  0  0  0  0  0
    6.5380   -0.6580    1.3100 H   0  0  0  0  0  0  0  0  0  0  0  0
   -2.9840   -2.4320   -1.2090 O   0  0  0  0  0  0  0  0  0  0  0  0
   -7.5940    1.1140    0.4490 C   0  0  0  0  0  0  0  0  0  0  0  0
   -6.8570    0.1540   -0.2470 C   0  0  0  0  0  0  0  0  0  0  0  0
   -7.2500   -0.3370   -1.1320 H   0  0  0  0  0  0  0  0  0  0  0  0
   -7.0380    1.7110    1.5840 C   0  0  0  0  0  0  0  0  0  0  0  0
   -7.6080    2.4570    2.1330 H   0  0  0  0  0  0  0  0  0  0  0  0
   -8.8500    1.5530    0.1290 O   0  0  0  0  0  0  0  0  0  0  0  0
    5.5910    2.7950    0.8790 O   0  0  0  0  0  0  0  0  0  0  0  0
   -2.9670    2.7480   -1.5200 C   0  0  0  0  0  0  0  0  0  0  0  0
   -2.7010    3.4450   -0.7200 H   0  0  0  0  0  0  0  0  0  0  0  0
   -3.8920    2.2200   -1.2790 H   0  0  0  0  0  0  0  0  0  0  0  0
   -3.1180    3.3200   -2.4400 H   0  0  0  0  0  0  0  0  0  0  0  0
    0.8730    3.7240   -0.7960 C   0  0  0  0  0  0  0  0  0  0  0  0
    1.3930    4.6620   -1.0090 H   0  0  0  0  0  0  0  0  0  0  0  0
    0.0790    3.9250   -0.0700 H   0  0  0  0  0  0  0  0  0  0  0  0
    0.4530    3.3530   -1.7330 H   0  0  0  0  0  0  0  0  0  0  0  0
    4.4570   -3.4500    0.3490 C   0  0  0  0  0  0  0  0  0  0  0  0
    4.8610   -3.7990   -0.6050 H   0  0  0  0  0  0  0  0  0  0  0  0
    3.7730   -4.2110    0.7350 H   0  0  0  0  0  0  0  0  0  0  0  0
    5.2910   -3.3000    1.0390 H   0  0  0  0  0  0  0  0  0  0  0  0
   -3.6440   -3.6830   -1.0890 C   0  0  0  0  0  0  0  0  0  0  0  0
   -4.5450   -3.6480   -1.7080 H   0  0  0  0  0  0  0  0  0  0  0  0
   -3.9630   -3.8490   -0.0580 H   0  0  0  0  0  0  0  0  0  0  0  0
   -3.0160   -4.5070   -1.4400 H   0  0  0  0  0  0  0  0  0  0  0  0
   -9.4710    0.9570   -1.0030 C   0  0  0  0  0  0  0  0  0  0  0  0
  -10.4630    1.4040   -1.1140 H   0  0  0  0  0  0  0  0  0  0  0  0
   -9.6060   -0.1200   -0.8590 H   0  0  0  0  0  0  0  0  0  0  0  0
   -8.9070    1.1660   -1.9180 H   0  0  0  0  0  0  0  0  0  0  0  0
    6.0390    4.0830    1.2820 C   0  0  0  0  0  0  0  0  0  0  0  0
    7.0840    4.1940    0.9780 H   0  0  0  0  0  0  0  0  0  0  0  0
    5.9780    4.1870    2.3690 H   0  0  0  0  0  0  0  0  0  0  0  0
    5.4480    4.8630    0.7940 H   0  0  0  0  0  0  0  0  0  0  0  0
    3.1530   -1.6130   -3.3430 C   0  0  0  0  0  0  0  0  0  0  0  0
    2.1360   -1.9850   -3.1970 H   0  0  0  0  0  0  0  0  0  0  0  0
    3.8510   -2.3160   -2.8760 H   0  0  0  0  0  0  0  0  0  0  0  0
    3.3460   -1.6160   -4.4210 H   0  0  0  0  0  0  0  0  0  0  0  0
    2.1290    1.0280    2.2220 H   0  0  0  0  0  0  0  0  0  0  0  0
    0.7070   -1.1650    2.4960 H   0  0  0  0  0  0  0  0  0  0  0  0
   -0.7250    0.5180    1.6650 H   0  0  0  0  0  0  0  0  0  0  0  0
    0.8550    1.0560   -1.8100 H   0  0  0  0  0  0  0  0  0  0  0  0
    1.5890   -1.4540   -1.1730 H   0  0  0  0  0  0  0  0  0  0  0  0
   -1.7810   -1.5190    2.4980 H   0  0  0  0  0  0  0  0  0  0  0  0
    0.4510    1.9450    0.9260 H   0  0  0  0  0  0  0  0  0  0  0  0
    2.6480   -2.5420    1.8100 H   0  0  0  0  0  0  0  0  0  0  0  0
    5.2770    0.6950    2.4000 H   0  0  0  0  0  0  0  0  0  0  0  0
   -1.1290   -3.2690   -1.3770 H   0  0  0  0  0  0  0  0  0  0  0  0
  1  5  1  0  0  0  0
  1  6  1  0  0  0  0
  1  9  1  0  0  0  0
  1 20  1  0  0  0  0
  2  4  1  0  0  0  0
  2  7  1  0  0  0  0
  2 17  1  0  0  0  0
  2 31  1  0  0  0  0
  3  5  1  0  0  0  0
  3 14  1  0  0  0  0
  3 25  1  0  0  0  0
  3 37  1  0  0  0  0
  4  6  1  0  0  0  0
  4 13  1  0  0  0  0
  4 91  1  0  0  0  0
  5 13  1  0  0  0  0
  5 88  1  0  0  0  0
  6 11  1  0  0  0  0
  6 92  1  0  0  0  0
  7  9  1  0  0  0  0
  7 10  1  0  0  0  0
  7 90  1  0  0  0  0
  8 10  1  0  0  0  0
  8 21  1  0  0  0  0
  8 26  1  0  0  0  0
  8 35  1  0  0  0  0
  9 21  1  0  0  0  0
  9 89  1  0  0  0  0
 10 24  1  0  0  0  0
 10 93  1  0  0  0  0
 11 12  1  0  0  0  0
 11 14  1  0  0  0  0
 11 46  1  0  0  0  0
 13 45  1  0  0  0  0
 13 94  1  0  0  0  0
 14 15  1  0  0  0  0
 14 16  1  0  0  0  0
 17 18  1  0  0  0  0
 17 19  1  0  0  0  0
 17 26  1  0  0  0  0
 20 28  1  0  0  0  0
 20 49  1  0  0  0  0
 20 95  1  0  0  0  0
 21 22  1  0  0  0  0
 21 23  1  0  0  0  0
 24 27  1  0  0  0  0
 25 28  1  0  0  0  0
 25 50  1  0  0  0  0
 25 96  1  0  0  0  0
 26 52  1  0  0  0  0
 26 97  1  0  0  0  0
 27 33  1  0  0  0  0
 27 34  2  0  0  0  0
 28 29  1  0  0  0  0
 28 30  1  0  0  0  0
 31 32  1  0  0  0  0
 32 40  2  0  0  0  0
 32 60  1  0  0  0  0
 33 41  2  0  0  0  0
 33 43  1  0  0  0  0
 35 36  1  0  0  0  0
 37 38  1  0  0  0  0
 37 39  1  0  0  0  0
 37 59  1  0  0  0  0
 41 42  1  0  0  0  0
 41 56  1  0  0  0  0
 43 44  1  0  0  0  0
 43 54  2  0  0  0  0
 45 64  1  0  0  0  0
 46 47  1  0  0  0  0
 46 48  1  0  0  0  0
 46 84  1  0  0  0  0
 49 68  1  0  0  0  0
 50 51  1  0  0  0  0
 52 72  1  0  0  0  0
 53 54  1  0  0  0  0
 53 56  2  0  0  0  0
 53 58  1  0  0  0  0
 54 55  1  0  0  0  0
 56 57  1  0  0  0  0
 58 76  1  0  0  0  0
 59 80  1  0  0  0  0
 60 61  1  0  0  0  0
 60 62  1  0  0  0  0
 60 63  1  0  0  0  0
 64 65  1  0  0  0  0
 64 66  1  0  0  0  0
 64 67  1  0  0  0  0
 68 69  1  0  0  0  0
 68 70  1  0  0  0  0
 68 71  1  0  0  0  0
 72 73  1  0  0  0  0
 72 74  1  0  0  0  0
 72 75  1  0  0  0  0
 76 77  1  0  0  0  0
 76 78  1  0  0  0  0
 76 79  1  0  0  0  0
 80 81  1  0  0  0  0
 80 82  1  0  0  0  0
 80 83  1  0  0  0  0
 84 85  1  0  0  0  0
 84 86  1  0  0  0  0
 84 87  1  0  0  0  0
M  CHG  1  11   1
M  END
>  <IDNUMBER>
AN-706/21186117

>  <NAME>
Yunaconitine (Vilmorrianine B and other names)

>  <ADD_INFO>
http://www.specs.net/enter.php?specsid=AN-706/21186117

>  <H_ACCEPTORS>
11

>  <H_DONORS>
2

>  <ROTATABLE_BONDS>
12

>  <LOGP>
0.69

>  <LOGS>
-3.5899999

>  <TPSA>
142.45

>  <PRICE>
N07

$$$$
AN-919/14028003
  MOE2011           3D

 58 62  0  0  1  0  0  0  0  0999 V2000
   -1.6220    2.6720   -0.3680 N   0  0  0  0  0  0  0  0  0  0  0  0
    1.0820    0.9250   -0.2310 N   0  0  0  0  0  0  0  0  0  0  0  0
   -1.4370    2.1320    0.9080 C   0  0  0  0  0  0  0  0  0  0  0  0
    0.1610   -1.3390   -0.5110 C   0  0  0  0  0  0  0  0  0  0  0  0
    0.8590   -0.1500   -1.0850 C   0  0  0  0  0  0  0  0  0  0  0  0
   -0.0700    2.2170    1.5600 C   0  0  3  0  0  0  0  0  0  0  0  0
   -2.8570    2.6030   -1.0300 C   0  0  0  0  0  0  0  0  0  0  0  0
    0.7750   -2.2770    0.2890 N   0  0  0  0  0  0  0  0  0  0  0  0
    0.1680   -2.9910    0.6800 H   0  0  0  0  0  0  0  0  0  0  0  0
   -1.1490   -1.3720   -0.8220 C   0  0  0  0  0  0  0  0  0  0  0  0
   -1.5710   -0.6140   -1.4830 H   0  0  0  0  0  0  0  0  0  0  0  0
    2.0740   -2.4630    0.7050 C   0  0  0  0  0  0  0  0  0  0  0  0
    0.7650    0.9690    1.2040 C   0  0  0  0  0  0  0  0  0  0  0  0
    0.2490    0.0660    1.5370 H   0  0  0  0  0  0  0  0  0  0  0  0
    1.7230    1.0030    1.7380 H   0  0  0  0  0  0  0  0  0  0  0  0
    0.8390    3.3880   -0.4080 C   0  0  3  0  0  0  0  0  0  0  0  0
   -0.5450    3.3750   -1.0750 C   0  0  0  0  0  0  0  0  0  0  0  0
   -0.4810    2.9790   -2.0970 H   0  0  0  0  0  0  0  0  0  0  0  0
   -0.8880    4.4140   -1.1770 H   0  0  0  0  0  0  0  0  0  0  0  0
    1.6690    2.1450   -0.7740 C   0  0  0  0  0  0  0  0  0  0  0  0
    2.6770    2.2300   -0.3480 H   0  0  0  0  0  0  0  0  0  0  0  0
    1.7880    2.0800   -1.8610 H   0  0  0  0  0  0  0  0  0  0  0  0
   -2.1300   -2.3610   -0.3620 C   0  0  0  0  0  0  0  0  0  0  0  0
    0.6660    3.4770    1.1050 C   0  0  0  0  0  0  0  0  0  0  0  0
    0.1020    4.3780    1.3780 H   0  0  0  0  0  0  0  0  0  0  0  0
    1.6430    3.5480    1.5980 H   0  0  0  0  0  0  0  0  0  0  0  0
   -2.4650    1.5430    1.5440 C   0  0  0  0  0  0  0  0  0  0  0  0
   -2.3510    1.1190    2.5370 H   0  0  0  0  0  0  0  0  0  0  0  0
   -3.7540    1.4270    0.9190 C   0  0  0  0  0  0  0  0  0  0  0  0
   -4.5490    0.9270    1.4620 H   0  0  0  0  0  0  0  0  0  0  0  0
   -3.9600    1.9170   -0.3070 C   0  0  0  0  0  0  0  0  0  0  0  0
   -4.9140    1.8480   -0.8120 H   0  0  0  0  0  0  0  0  0  0  0  0
    1.1330   -0.1450   -2.2850 O   0  0  0  0  0  0  0  0  0  0  0  0
    2.3250   -3.2930    1.5790 O   0  0  0  0  0  0  0  0  0  0  0  0
   -3.0860    3.0740   -2.1430 O   0  0  0  0  0  0  0  0  0  0  0  0
    3.2020   -1.7120    0.1320 C   0  0  0  0  0  0  0  0  0  0  0  0
   -2.8060   -3.1630   -1.2870 C   0  0  0  0  0  0  0  0  0  0  0  0
   -2.5430   -3.0510   -2.5970 F   0  0  0  0  0  0  0  0  0  0  0  0
   -2.4440   -2.4880    0.9970 C   0  0  0  0  0  0  0  0  0  0  0  0
   -1.9570   -1.8610    1.7400 H   0  0  0  0  0  0  0  0  0  0  0  0
    3.5160   -1.8240   -1.2250 C   0  0  0  0  0  0  0  0  0  0  0  0
    2.9020   -2.4230   -1.8930 H   0  0  0  0  0  0  0  0  0  0  0  0
    4.0250   -0.9780    0.9920 C   0  0  0  0  0  0  0  0  0  0  0  0
    3.8040   -0.9280    2.0550 H   0  0  0  0  0  0  0  0  0  0  0  0
   -3.7600   -4.0910   -0.8750 C   0  0  0  0  0  0  0  0  0  0  0  0
   -4.2680   -4.7050   -1.6120 H   0  0  0  0  0  0  0  0  0  0  0  0
   -3.4000   -3.4170    1.4150 C   0  0  0  0  0  0  0  0  0  0  0  0
   -3.6370   -3.5130    2.4720 H   0  0  0  0  0  0  0  0  0  0  0  0
   -4.0560   -4.2180    0.4800 C   0  0  0  0  0  0  0  0  0  0  0  0
   -4.8020   -4.9360    0.8090 H   0  0  0  0  0  0  0  0  0  0  0  0
    4.6290   -1.1510   -1.7300 C   0  0  0  0  0  0  0  0  0  0  0  0
    4.8680   -1.2200   -2.7880 H   0  0  0  0  0  0  0  0  0  0  0  0
    5.1380   -0.3090    0.4810 C   0  0  0  0  0  0  0  0  0  0  0  0
    5.7780    0.2670    1.1440 H   0  0  0  0  0  0  0  0  0  0  0  0
    5.4350   -0.3910   -0.8800 C   0  0  0  0  0  0  0  0  0  0  0  0
    6.3020    0.1290   -1.2780 H   0  0  0  0  0  0  0  0  0  0  0  0
   -0.1830    2.2590    2.6510 H   0  0  0  0  0  0  0  0  0  0  0  0
    1.3870    4.2670   -0.7670 H   0  0  0  0  0  0  0  0  0  0  0  0
  1  3  1  0  0  0  0
  1  7  1  0  0  0  0
  1 17  1  0  0  0  0
  2  5  1  0  0  0  0
  2 13  1  0  0  0  0
  2 20  1  0  0  0  0
  3  6  1  0  0  0  0
  3 27  2  0  0  0  0
  4  5  1  0  0  0  0
  4  8  1  0  0  0  0
  4 10  2  0  0  0  0
  5 33  2  0  0  0  0
  6 13  1  0  0  0  0
  6 24  1  0  0  0  0
  6 57  1  0  0  0  0
  7 31  1  0  0  0  0
  7 35  2  0  0  0  0
  8  9  1  0  0  0  0
  8 12  1  0  0  0  0
 10 11  1  0  0  0  0
 10 23  1  0  0  0  0
 12 34  2  0  0  0  0
 12 36  1  0  0  0  0
 13 14  1  0  0  0  0
 13 15  1  0  0  0  0
 16 17  1  0  0  0  0
 16 20  1  0  0  0  0
 16 24  1  0  0  0  0
 16 58  1  0  0  0  0
 17 18  1  0  0  0  0
 17 19  1  0  0  0  0
 20 21  1  0  0  0  0
 20 22  1  0  0  0  0
 23 37  2  0  0  0  0
 23 39  1  0  0  0  0
 24 25  1  0  0  0  0
 24 26  1  0  0  0  0
 27 28  1  0  0  0  0
 27 29  1  0  0  0  0
 29 30  1  0  0  0  0
 29 31  2  0  0  0  0
 31 32  1  0  0  0  0
 36 41  2  0  0  0  0
 36 43  1  0  0  0  0
 37 38  1  0  0  0  0
 37 45  1  0  0  0  0
 39 40  1  0  0  0  0
 39 47  2  0  0  0  0
 41 42  1  0  0  0  0
 41 51  1  0  0  0  0
 43 44  1  0  0  0  0
 43 53  2  0  0  0  0
 45 46  1  0  0  0  0
 45 49  2  0  0  0  0
 47 48  1  0  0  0  0
 47 49  1  0  0  0  0
 49 50  1  0  0  0  0
 51 52  1  0  0  0  0
 51 55  2  0  0  0  0
 53 54  1  0  0  0  0
 53 55  1  0  0  0  0
 55 56  1  0  0  0  0
M  END
>  <IDNUMBER>
AN-919/14028003

>  <NAME>
N-{2-(2-fluorophenyl)-1-[(6-oxo-7,11-diazatricyclo[7.3.1.0~2,7~]trideca-2,4-dien-11-yl)carbonyl]vinyl}benzamide

>  <ADD_INFO>
http://www.specs.net/enter.php?specsid=AN-919/14028003

>  <H_ACCEPTORS>
6

>  <H_DONORS>
1

>  <ROTATABLE_BONDS>
6

>  <LOGP>
3.6500001

>  <LOGS>
-5.6500001

>  <TPSA>
69.720001

>  <PRICE>
N04

$$$$
AN-919/14028004
  MOE2011           3D

 58 62  0  0  1  0  0  0  0  0999 V2000
    3.4650    0.8820    0.4780 N   0  0  0  0  0  0  0  0  0  0  0  0
   -0.6000    0.0190   -0.4450 N   0  0  0  0  0  0  0  0  0  0  0  0
   -2.5230   -1.4760    0.0350 C   0  0  0  0  0  0  0  0  0  0  0  0
    2.9420    1.2880   -0.7760 C   0  0  0  0  0  0  0  0  0  0  0  0
   -1.7940   -0.5470   -0.8900 C   0  0  0  0  0  0  0  0  0  0  0  0
   -2.0680   -2.7300    0.2490 C   0  0  0  0  0  0  0  0  0  0  0  0
   -2.6220   -3.3810    0.9220 H   0  0  0  0  0  0  0  0  0  0  0  0
    1.4620    1.2240   -0.7860 C   0  0  3  0  0  0  0  0  0  0  0  0
   -0.8840   -3.3130   -0.2910 C   0  0  0  0  0  0  0  0  0  0  0  0
    4.8400    0.8390    0.7120 C   0  0  0  0  0  0  0  0  0  0  0  0
   -3.7490   -1.1280    0.5770 N   0  0  0  0  0  0  0  0  0  0  0  0
   -4.2560   -1.8670    1.0530 H   0  0  0  0  0  0  0  0  0  0  0  0
   -4.4810    0.0370    0.6020 C   0  0  0  0  0  0  0  0  0  0  0  0
    0.2010    0.7740   -1.4820 C   0  0  0  0  0  0  0  0  0  0  0  0
    0.3980    0.1050   -2.3290 H   0  0  0  0  0  0  0  0  0  0  0  0
   -0.4020    1.6110   -1.8500 H   0  0  0  0  0  0  0  0  0  0  0  0
    1.0030    0.9560    1.4640 C   0  0  3  0  0  0  0  0  0  0  0  0
    0.1610   -3.9470    0.3730 C   0  0  0  0  0  0  0  0  0  0  0  0
    2.5110    0.4620    1.5840 C   0  0  0  0  0  0  0  0  0  0  0  0
    2.5630   -0.6300    1.6630 H   0  0  0  0  0  0  0  0  0  0  0  0
    2.9260    0.8640    2.5160 H   0  0  0  0  0  0  0  0  0  0  0  0
   -0.0600   -0.1180    0.9800 C   0  0  0  0  0  0  0  0  0  0  0  0
   -0.9230   -0.0800    1.6540 H   0  0  0  0  0  0  0  0  0  0  0  0
    0.3720   -1.1170    1.0650 H   0  0  0  0  0  0  0  0  0  0  0  0
   -0.7050   -3.4210   -1.9940 S   0  0  0  0  0  0  0  0  0  0  0  0
    1.0080    2.0450    0.4290 C   0  0  0  0  0  0  0  0  0  0  0  0
    1.6880    2.8660    0.6920 H   0  0  0  0  0  0  0  0  0  0  0  0
    0.0220    2.5030    0.3020 H   0  0  0  0  0  0  0  0  0  0  0  0
    3.7420    1.6530   -1.7830 C   0  0  0  0  0  0  0  0  0  0  0  0
    3.3510    1.9590   -2.7470 H   0  0  0  0  0  0  0  0  0  0  0  0
    0.8080   -4.1940   -1.8610 C   0  0  0  0  0  0  0  0  0  0  0  0
    1.3660   -4.4570   -2.7480 H   0  0  0  0  0  0  0  0  0  0  0  0
    5.1710    1.6400   -1.5930 C   0  0  0  0  0  0  0  0  0  0  0  0
    5.7990    1.9450   -2.4230 H   0  0  0  0  0  0  0  0  0  0  0  0
    5.7080    1.2610   -0.4260 C   0  0  0  0  0  0  0  0  0  0  0  0
    6.7780    1.2400   -0.2590 H   0  0  0  0  0  0  0  0  0  0  0  0
    1.1480   -4.4290   -0.5500 C   0  0  0  0  0  0  0  0  0  0  0  0
    2.0600   -4.9370   -0.2610 H   0  0  0  0  0  0  0  0  0  0  0  0
   -2.2570   -0.3480   -2.0160 O   0  0  0  0  0  0  0  0  0  0  0  0
   -5.6210    0.0430    1.0650 O   0  0  0  0  0  0  0  0  0  0  0  0
    5.3650    0.4850    1.7650 O   0  0  0  0  0  0  0  0  0  0  0  0
   -3.9200    1.3160    0.1580 C   0  0  0  0  0  0  0  0  0  0  0  0
    0.2670   -4.1130    1.8550 C   0  0  0  0  0  0  0  0  0  0  0  0
    1.2700   -4.4430    2.1450 H   0  0  0  0  0  0  0  0  0  0  0  0
   -0.4520   -4.8620    2.2020 H   0  0  0  0  0  0  0  0  0  0  0  0
    0.0640   -3.1690    2.3710 H   0  0  0  0  0  0  0  0  0  0  0  0
   -4.2230    1.7980   -1.1170 C   0  0  0  0  0  0  0  0  0  0  0  0
   -4.8090    1.2000   -1.8100 H   0  0  0  0  0  0  0  0  0  0  0  0
   -3.1880    2.0890    1.0630 C   0  0  0  0  0  0  0  0  0  0  0  0
   -2.9870    1.7270    2.0680 H   0  0  0  0  0  0  0  0  0  0  0  0
   -3.7470    3.0500   -1.5050 C   0  0  0  0  0  0  0  0  0  0  0  0
   -3.9600    3.4240   -2.5030 H   0  0  0  0  0  0  0  0  0  0  0  0
   -2.7300    3.3470    0.6720 C   0  0  0  0  0  0  0  0  0  0  0  0
   -2.1590    3.9570    1.3670 H   0  0  0  0  0  0  0  0  0  0  0  0
   -3.0030    3.8230   -0.6120 C   0  0  0  0  0  0  0  0  0  0  0  0
   -2.6390    4.8010   -0.9160 H   0  0  0  0  0  0  0  0  0  0  0  0
    1.6170    0.1470   -0.5580 H   0  0  0  0  0  0  0  0  0  0  0  0
    0.6880    1.3250    2.4470 H   0  0  0  0  0  0  0  0  0  0  0  0
  1  4  1  0  0  0  0
  1 10  1  0  0  0  0
  1 19  1  0  0  0  0
  2  5  1  0  0  0  0
  2 14  1  0  0  0  0
  2 22  1  0  0  0  0
  3  5  1  0  0  0  0
  3  6  2  0  0  0  0
  3 11  1  0  0  0  0
  4  8  1  0  0  0  0
  4 29  2  0  0  0  0
  5 39  2  0  0  0  0
  6  7  1  0  0  0  0
  6  9  1  0  0  0  0
  8 14  1  0  0  0  0
  8 26  1  0  0  0  0
  8 57  1  0  0  0  0
  9 18  2  0  0  0  0
  9 25  1  0  0  0  0
 10 35  1  0  0  0  0
 10 41  2  0  0  0  0
 11 12  1  0  0  0  0
 11 13  1  0  0  0  0
 13 40  2  0  0  0  0
 13 42  1  0  0  0  0
 14 15  1  0  0  0  0
 14 16  1  0  0  0  0
 17 19  1  0  0  0  0
 17 22  1  0  0  0  0
 17 26  1  0  0  0  0
 17 58  1  0  0  0  0
 18 37  1  0  0  0  0
 18 43  1  0  0  0  0
 19 20  1  0  0  0  0
 19 21  1  0  0  0  0
 22 23  1  0  0  0  0
 22 24  1  0  0  0  0
 25 31  1  0  0  0  0
 26 27  1  0  0  0  0
 26 28  1  0  0  0  0
 29 30  1  0  0  0  0
 29 33  1  0  0  0  0
 31 32  1  0  0  0  0
 31 37  2  0  0  0  0
 33 34  1  0  0  0  0
 33 35  2  0  0  0  0
 35 36  1  0  0  0  0
 37 38  1  0  0  0  0
 42 47  2  0  0  0  0
 42 49  1  0  0  0  0
 43 44  1  0  0  0  0
 43 45  1  0  0  0  0
 43 46  1  0  0  0  0
 47 48  1  0  0  0  0
 47 51  1  0  0  0  0
 49 50  1  0  0  0  0
 49 53  2  0  0  0  0
 51 52  1  0  0  0  0
 51 55  2  0  0  0  0
 53 54  1  0  0  0  0
 53 55  1  0  0  0  0
 55 56  1  0  0  0  0
M  END
>  <IDNUMBER>
AN-919/14028004

>  <NAME>
N-{2-(3-methyl-2-thienyl)-1-[(6-oxo-7,11-diazatricyclo[7.3.1.0~2,7~]trideca-2,4-dien-11-yl)carbonyl]vinyl}benzamide

>  <ADD_INFO>
http://www.specs.net/enter.php?specsid=AN-919/14028004

>  <H_ACCEPTORS>
6

>  <H_DONORS>
1

>  <ROTATABLE_BONDS>
6

>  <LOGP>
3.8199999

>  <LOGS>
-5.8099999

>  <TPSA>
97.959999

>  <PRICE>
N04

$$$$
AN-919/14028005
  MOE2011           3D

 61 66  0  0  1  0  0  0  0  0999 V2000
    4.3390   -1.6070   -0.5010 N   0  0  0  0  0  0  0  0  0  0  0  0
    0.6010    0.0150    0.8590 N   0  0  0  0  0  0  0  0  0  0  0  0
    4.3040   -0.8020    0.6660 C   0  0  0  0  0  0  0  0  0  0  0  0
   -1.7910    0.4350    0.4350 C   0  0  0  0  0  0  0  0  0  0  0  0
   -0.5640    0.6710    1.2540 C   0  0  0  0  0  0  0  0  0  0  0  0
    2.9130   -0.5930    1.1260 C   0  0  3  0  0  0  0  0  0  0  0  0
    5.5480   -1.9440   -1.1150 C   0  0  0  0  0  0  0  0  0  0  0  0
   -1.9880    0.9820   -0.8150 N   0  0  0  0  0  0  0  0  0  0  0  0
   -2.8060    0.6530   -1.3200 H   0  0  0  0  0  0  0  0  0  0  0  0
   -1.2850    1.9020   -1.5610 C   0  0  0  0  0  0  0  0  0  0  0  0
    1.8550    0.3510    1.6410 C   0  0  0  0  0  0  0  0  0  0  0  0
    2.0990    1.4060    1.4710 H   0  0  0  0  0  0  0  0  0  0  0  0
    1.6570    0.2190    2.7100 H   0  0  0  0  0  0  0  0  0  0  0  0
   -2.6820   -0.3820    1.0270 C   0  0  0  0  0  0  0  0  0  0  0  0
   -2.4890   -0.7790    2.0230 H   0  0  0  0  0  0  0  0  0  0  0  0
    1.7660   -2.1460   -0.1400 C   0  0  3  0  0  0  0  0  0  0  0  0
    3.0310   -2.1000   -1.1050 C   0  0  0  0  0  0  0  0  0  0  0  0
    2.8280   -1.4870   -1.9910 H   0  0  0  0  0  0  0  0  0  0  0  0
    3.2220   -3.1190   -1.4650 H   0  0  0  0  0  0  0  0  0  0  0  0
    0.6900   -0.9850   -0.3040 C   0  0  0  0  0  0  0  0  0  0  0  0
   -0.2920   -1.4530   -0.4250 H   0  0  0  0  0  0  0  0  0  0  0  0
    0.8840   -0.4050   -1.2120 H   0  0  0  0  0  0  0  0  0  0  0  0
   -6.3460   -0.6080    0.4150 C   0  0  0  0  0  0  0  0  0  0  0  0
    2.3160   -2.0060    1.2520 C   0  0  0  0  0  0  0  0  0  0  0  0
    3.0520   -2.7850    1.4910 H   0  0  0  0  0  0  0  0  0  0  0  0
    1.5360   -2.0910    2.0190 H   0  0  0  0  0  0  0  0  0  0  0  0
    5.4220   -0.3220    1.2200 C   0  0  0  0  0  0  0  0  0  0  0  0
    5.4000    0.2980    2.1090 H   0  0  0  0  0  0  0  0  0  0  0  0
   -6.4080   -1.5240   -0.6090 C   0  0  0  0  0  0  0  0  0  0  0  0
   -7.5760   -0.1610    0.7860 O   0  0  0  0  0  0  0  0  0  0  0  0
    6.6970   -0.6380    0.6280 C   0  0  0  0  0  0  0  0  0  0  0  0
    7.5920   -0.2430    1.0980 H   0  0  0  0  0  0  0  0  0  0  0  0
   -3.9730   -0.7830    0.4600 C   0  0  0  0  0  0  0  0  0  0  0  0
    6.7790   -1.4020   -0.4700 C   0  0  0  0  0  0  0  0  0  0  0  0
    7.7240   -1.6550   -0.9320 H   0  0  0  0  0  0  0  0  0  0  0  0
   -7.6850   -1.7660   -1.0110 O   0  0  0  0  0  0  0  0  0  0  0  0
   -0.6370    1.3910    2.2500 O   0  0  0  0  0  0  0  0  0  0  0  0
   -8.4180   -0.8960   -0.1230 C   0  0  0  0  0  0  0  0  0  0  0  0
   -9.1190   -1.5030    0.4610 H   0  0  0  0  0  0  0  0  0  0  0  0
   -8.9900   -0.1820   -0.7260 H   0  0  0  0  0  0  0  0  0  0  0  0
   -5.1470   -0.2170    0.9720 C   0  0  0  0  0  0  0  0  0  0  0  0
   -5.1290    0.5090    1.7790 H   0  0  0  0  0  0  0  0  0  0  0  0
   -1.5770    2.0900   -2.7420 O   0  0  0  0  0  0  0  0  0  0  0  0
    5.6560   -2.6390   -2.1230 O   0  0  0  0  0  0  0  0  0  0  0  0
   -0.2050    2.7170   -0.9830 C   0  0  0  0  0  0  0  0  0  0  0  0
   -5.2720   -2.1030   -1.1330 C   0  0  0  0  0  0  0  0  0  0  0  0
   -5.3350   -2.8260   -1.9390 H   0  0  0  0  0  0  0  0  0  0  0  0
   -4.0400   -1.7270   -0.5880 C   0  0  0  0  0  0  0  0  0  0  0  0
   -3.1300   -2.1770   -0.9800 H   0  0  0  0  0  0  0  0  0  0  0  0
    1.0650    2.6640   -1.5680 C   0  0  0  0  0  0  0  0  0  0  0  0
    1.2580    2.0030   -2.4090 H   0  0  0  0  0  0  0  0  0  0  0  0
   -0.4690    3.6090    0.0600 C   0  0  0  0  0  0  0  0  0  0  0  0
   -1.4630    3.6810    0.4950 H   0  0  0  0  0  0  0  0  0  0  0  0
    2.0900    3.4670   -1.0670 C   0  0  0  0  0  0  0  0  0  0  0  0
    3.0810    3.4210   -1.5090 H   0  0  0  0  0  0  0  0  0  0  0  0
    0.5600    4.4110    0.5550 C   0  0  0  0  0  0  0  0  0  0  0  0
    0.3650    5.0960    1.3770 H   0  0  0  0  0  0  0  0  0  0  0  0
    1.8380    4.3350   -0.0030 C   0  0  0  0  0  0  0  0  0  0  0  0
    2.6380    4.9600    0.3860 H   0  0  0  0  0  0  0  0  0  0  0  0
    2.7490   -0.1240    0.1310 H   0  0  0  0  0  0  0  0  0  0  0  0
    1.2580   -3.1060   -0.2860 H   0  0  0  0  0  0  0  0  0  0  0  0
  1  3  1  0  0  0  0
  1  7  1  0  0  0  0
  1 17  1  0  0  0  0
  2  5  1  0  0  0  0
  2 11  1  0  0  0  0
  2 20  1  0  0  0  0
  3  6  1  0  0  0  0
  3 27  2  0  0  0  0
  4  5  1  0  0  0  0
  4  8  1  0  0  0  0
  4 14  2  0  0  0  0
  5 37  2  0  0  0  0
  6 11  1  0  0  0  0
  6 24  1  0  0  0  0
  6 60  1  0  0  0  0
  7 34  1  0  0  0  0
  7 44  2  0  0  0  0
  8  9  1  0  0  0  0
  8 10  1  0  0  0  0
 10 43  2  0  0  0  0
 10 45  1  0  0  0  0
 11 12  1  0  0  0  0
 11 13  1  0  0  0  0
 14 15  1  0  0  0  0
 14 33  1  0  0  0  0
 16 17  1  0  0  0  0
 16 20  1  0  0  0  0
 16 24  1  0  0  0  0
 16 61  1  0  0  0  0
 17 18  1  0  0  0  0
 17 19  1  0  0  0  0
 20 21  1  0  0  0  0
 20 22  1  0  0  0  0
 23 29  2  0  0  0  0
 23 30  1  0  0  0  0
 23 41  1  0  0  0  0
 24 25  1  0  0  0  0
 24 26  1  0  0  0  0
 27 28  1  0  0  0  0
 27 31  1  0  0  0  0
 29 36  1  0  0  0  0
 29 46  1  0  0  0  0
 30 38  1  0  0  0  0
 31 32  1  0  0  0  0
 31 34  2  0  0  0  0
 33 41  2  0  0  0  0
 33 48  1  0  0  0  0
 34 35  1  0  0  0  0
 36 38  1  0  0  0  0
 38 39  1  0  0  0  0
 38 40  1  0  0  0  0
 41 42  1  0  0  0  0
 45 50  2  0  0  0  0
 45 52  1  0  0  0  0
 46 47  1  0  0  0  0
 46 48  2  0  0  0  0
 48 49  1  0  0  0  0
 50 51  1  0  0  0  0
 50 54  1  0  0  0  0
 52 53  1  0  0  0  0
 52 56  2  0  0  0  0
 54 55  1  0  0  0  0
 54 58  2  0  0  0  0
 56 57  1  0  0  0  0
 56 58  1  0  0  0  0
 58 59  1  0  0  0  0
M  END
>  <IDNUMBER>
AN-919/14028005

>  <NAME>
N-{2-(1,3-benzodioxol-5-yl)-1-[(6-oxo-7,11-diazatricyclo[7.3.1.0~2,7~]trideca-2,4-dien-11-yl)carbonyl]vinyl}benzamide

>  <ADD_INFO>
http://www.specs.net/enter.php?specsid=AN-919/14028005

>  <H_ACCEPTORS>
6

>  <H_DONORS>
1

>  <ROTATABLE_BONDS>
6

>  <LOGP>
3.51

>  <LOGS>
-5.7199998

>  <TPSA>
88.18

>  <PRICE>
N04

$$$$
AN-919/14028007
  MOE2011           3D

 62 66  0  0  1  0  0  0  0  0999 V2000
    5.2670   -0.2010   -0.9130 N   0  0  0  0  0  0  0  0  0  0  0  0
    1.4690   -0.3020    1.3700 N   0  0  0  0  0  0  0  0  0  0  0  0
    5.4080   -0.1330    0.5290 C   0  0  0  0  0  0  0  0  0  0  0  0
   -0.9870   -0.0430    1.1940 C   0  0  0  0  0  0  0  0  0  0  0  0
    0.2800    0.0660    1.9990 C   0  0  0  0  0  0  0  0  0  0  0  0
    4.2000   -0.4950    1.5040 C   0  0  3  0  0  0  0  0  0  0  0  0
   -2.4550    1.4530   -0.1560 C   0  0  0  0  0  0  0  0  0  0  0  0
   -1.5160    1.1730    0.8130 N   0  0  0  0  0  0  0  0  0  0  0  0
   -1.1170    1.9690    1.3080 H   0  0  0  0  0  0  0  0  0  0  0  0
   -2.8560    2.8710   -0.1740 C   0  0  0  0  0  0  0  0  0  0  0  0
    6.3300    0.0900   -1.7700 C   0  0  0  0  0  0  0  0  0  0  0  0
    2.7460   -0.2370    2.2250 C   0  0  0  0  0  0  0  0  0  0  0  0
    2.7420    0.7120    2.7810 H   0  0  0  0  0  0  0  0  0  0  0  0
    2.6230   -1.0080    3.0010 H   0  0  0  0  0  0  0  0  0  0  0  0
   -1.4630   -1.2920    1.0390 C   0  0  0  0  0  0  0  0  0  0  0  0
   -0.8760   -2.1250    1.4300 H   0  0  0  0  0  0  0  0  0  0  0  0
    2.9790   -0.6900   -0.4280 C   0  0  3  0  0  0  0  0  0  0  0  0
    3.9550   -0.6290   -1.5540 C   0  0  0  0  0  0  0  0  0  0  0  0
    3.6840    0.1110   -2.3160 H   0  0  0  0  0  0  0  0  0  0  0  0
    4.1130   -1.5920   -2.0520 H   0  0  0  0  0  0  0  0  0  0  0  0
    1.5320   -0.7710   -0.0880 C   0  0  0  0  0  0  0  0  0  0  0  0
    1.1310   -1.7880   -0.1450 H   0  0  0  0  0  0  0  0  0  0  0  0
    0.9160   -0.1070   -0.7030 H   0  0  0  0  0  0  0  0  0  0  0  0
    3.6690   -1.5860    0.6070 C   0  0  0  0  0  0  0  0  0  0  0  0
    4.4340   -2.2650    0.1980 H   0  0  0  0  0  0  0  0  0  0  0  0
    3.0030   -2.2980    1.1180 H   0  0  0  0  0  0  0  0  0  0  0  0
    6.6060    0.1800    1.0540 C   0  0  0  0  0  0  0  0  0  0  0  0
    6.7570    0.2160    2.1290 H   0  0  0  0  0  0  0  0  0  0  0  0
    7.7250    0.4960    0.2080 C   0  0  0  0  0  0  0  0  0  0  0  0
    8.6640    0.7650    0.6820 H   0  0  0  0  0  0  0  0  0  0  0  0
    7.6160    0.4640   -1.1250 C   0  0  0  0  0  0  0  0  0  0  0  0
    8.4440    0.6980   -1.7820 H   0  0  0  0  0  0  0  0  0  0  0  0
   -2.3630    3.7630   -1.1310 C   0  0  0  0  0  0  0  0  0  0  0  0
   -2.9300    0.7080   -0.9990 O   0  0  0  0  0  0  0  0  0  0  0  0
    0.2200    0.5240    3.1400 O   0  0  0  0  0  0  0  0  0  0  0  0
    6.2700    0.0450   -2.9980 O   0  0  0  0  0  0  0  0  0  0  0  0
   -2.7480   -1.7400    0.4930 C   0  0  0  0  0  0  0  0  0  0  0  0
   -1.1170    3.2420   -2.4630 Br  0  0  0  0  0  0  0  0  0  0  0  0
   -5.1950   -2.7160   -0.5080 C   0  0  0  0  0  0  0  0  0  0  0  0
   -3.7550    3.3040    0.8080 C   0  0  0  0  0  0  0  0  0  0  0  0
   -4.1500    2.6090    1.5470 H   0  0  0  0  0  0  0  0  0  0  0  0
   -3.9480   -1.4500    1.1520 C   0  0  0  0  0  0  0  0  0  0  0  0
   -3.9500   -0.8510    2.0590 H   0  0  0  0  0  0  0  0  0  0  0  0
   -2.7800   -2.5320   -0.6600 C   0  0  0  0  0  0  0  0  0  0  0  0
   -1.8600   -2.7750   -1.1850 H   0  0  0  0  0  0  0  0  0  0  0  0
   -5.1610   -1.9350    0.6510 C   0  0  0  0  0  0  0  0  0  0  0  0
   -6.0880   -1.7030    1.1690 H   0  0  0  0  0  0  0  0  0  0  0  0
   -3.9980   -3.0120   -1.1630 C   0  0  0  0  0  0  0  0  0  0  0  0
   -3.9740   -3.6140   -2.0650 H   0  0  0  0  0  0  0  0  0  0  0  0
   -6.4450   -3.1290   -0.8880 O   0  0  0  0  0  0  0  0  0  0  0  0
   -2.7720    5.0990   -1.1000 C   0  0  0  0  0  0  0  0  0  0  0  0
   -2.4020    5.8130   -1.8320 H   0  0  0  0  0  0  0  0  0  0  0  0
   -6.5370   -3.8710   -2.0970 C   0  0  0  0  0  0  0  0  0  0  0  0
   -7.5940   -4.0940   -2.2740 H   0  0  0  0  0  0  0  0  0  0  0  0
   -6.0050   -4.8250   -2.0150 H   0  0  0  0  0  0  0  0  0  0  0  0
   -6.1730   -3.2870   -2.9490 H   0  0  0  0  0  0  0  0  0  0  0  0
   -4.1600    4.6380    0.8310 C   0  0  0  0  0  0  0  0  0  0  0  0
   -4.8610    4.9810    1.5880 H   0  0  0  0  0  0  0  0  0  0  0  0
   -3.6680    5.5330   -0.1190 C   0  0  0  0  0  0  0  0  0  0  0  0
   -3.9850    6.5730   -0.0980 H   0  0  0  0  0  0  0  0  0  0  0  0
    4.0680    0.6000    1.3480 H   0  0  0  0  0  0  0  0  0  0  0  0
    3.0380    0.3980   -0.2240 H   0  0  0  0  0  0  0  0  0  0  0  0
  1  3  1  0  0  0  0
  1 11  1  0  0  0  0
  1 18  1  0  0  0  0
  2  5  1  0  0  0  0
  2 12  1  0  0  0  0
  2 21  1  0  0  0  0
  3  6  1  0  0  0  0
  3 27  2  0  0  0  0
  4  5  1  0  0  0  0
  4  8  1  0  0  0  0
  4 15  2  0  0  0  0
  5 35  2  0  0  0  0
  6 12  1  0  0  0  0
  6 24  1  0  0  0  0
  6 61  1  0  0  0  0
  7  8  1  0  0  0  0
  7 10  1  0  0  0  0
  7 34  2  0  0  0  0
  8  9  1  0  0  0  0
 10 33  2  0  0  0  0
 10 40  1  0  0  0  0
 11 31  1  0  0  0  0
 11 36  2  0  0  0  0
 12 13  1  0  0  0  0
 12 14  1  0  0  0  0
 15 16  1  0  0  0  0
 15 37  1  0  0  0  0
 17 18  1  0  0  0  0
 17 21  1  0  0  0  0
 17 24  1  0  0  0  0
 17 62  1  0  0  0  0
 18 19  1  0  0  0  0
 18 20  1  0  0  0  0
 21 22  1  0  0  0  0
 21 23  1  0  0  0  0
 24 25  1  0  0  0  0
 24 26  1  0  0  0  0
 27 28  1  0  0  0  0
 27 29  1  0  0  0  0
 29 30  1  0  0  0  0
 29 31  2  0  0  0  0
 31 32  1  0  0  0  0
 33 38  1  0  0  0  0
 33 51  1  0  0  0  0
 37 42  2  0  0  0  0
 37 44  1  0  0  0  0
 39 46  2  0  0  0  0
 39 48  1  0  0  0  0
 39 50  1  0  0  0  0
 40 41  1  0  0  0  0
 40 57  2  0  0  0  0
 42 43  1  0  0  0  0
 42 46  1  0  0  0  0
 44 45  1  0  0  0  0
 44 48  2  0  0  0  0
 46 47  1  0  0  0  0
 48 49  1  0  0  0  0
 50 53  1  0  0  0  0
 51 52  1  0  0  0  0
 51 59  2  0  0  0  0
 53 54  1  0  0  0  0
 53 55  1  0  0  0  0
 53 56  1  0  0  0  0
 57 58  1  0  0  0  0
 57 59  1  0  0  0  0
 59 60  1  0  0  0  0
M  END
>  <IDNUMBER>
AN-919/14028007

>  <NAME>
2-bromo-N-{2-(4-methoxyphenyl)-1-[(6-oxo-7,11-diazatricyclo[7.3.1.0~2,7~]trideca-2,4-dien-11-yl)carbonyl]vinyl}benzamide

>  <ADD_INFO>
http://www.specs.net/enter.php?specsid=AN-919/14028007

>  <H_ACCEPTORS>
6

>  <H_DONORS>
1

>  <ROTATABLE_BONDS>
7

>  <LOGP>
4.4200001

>  <LOGS>
-6.9699998

>  <TPSA>
78.949997

>  <PRICE>
N04

$$$$
AN-919/14028009
  MOE2011           3D

 66 70  0  0  1  0  0  0  0  0999 V2000
    4.3910    0.7160   -0.5180 N   0  0  0  0  0  0  0  0  0  0  0  0
    2.2030   -1.5000    0.4810 N   0  0  0  0  0  0  0  0  0  0  0  0
    4.9820   -0.2760    0.2690 C   0  0  0  0  0  0  0  0  0  0  0  0
    0.0340   -0.4560    1.0460 C   0  0  0  0  0  0  0  0  0  0  0  0
    1.3720   -0.9900    1.4780 C   0  0  0  0  0  0  0  0  0  0  0  0
    4.6440   -1.7310    0.0110 C   0  0  3  0  0  0  0  0  0  0  0  0
   -0.9860   -2.6880    0.7690 C   0  0  0  0  0  0  0  0  0  0  0  0
   -1.0030   -1.3050    0.7140 N   0  0  0  0  0  0  0  0  0  0  0  0
   -1.8640   -0.8570    0.4170 H   0  0  0  0  0  0  0  0  0  0  0  0
   -2.2310   -3.3560    0.3060 C   0  0  0  0  0  0  0  0  0  0  0  0
    4.6530    2.0780   -0.3140 C   0  0  0  0  0  0  0  0  0  0  0  0
    3.4460   -2.1640    0.8740 C   0  0  0  0  0  0  0  0  0  0  0  0
    3.6580   -2.0010    1.9370 H   0  0  0  0  0  0  0  0  0  0  0  0
    3.2740   -3.2410    0.7510 H   0  0  0  0  0  0  0  0  0  0  0  0
   -0.0830    0.8860    1.0430 C   0  0  0  0  0  0  0  0  0  0  0  0
    0.7610    1.5050    1.3470 H   0  0  0  0  0  0  0  0  0  0  0  0
    3.1200   -1.0880   -1.8090 C   0  0  3  0  0  0  0  0  0  0  0  0
    3.4920    0.3890   -1.6260 C   0  0  0  0  0  0  0  0  0  0  0  0
    2.5910    1.0110   -1.5420 H   0  0  0  0  0  0  0  0  0  0  0  0
    4.0070    0.7300   -2.5350 H   0  0  0  0  0  0  0  0  0  0  0  0
    1.9040   -1.4820   -0.9520 C   0  0  0  0  0  0  0  0  0  0  0  0
    1.5870   -2.4990   -1.2150 H   0  0  0  0  0  0  0  0  0  0  0  0
    1.0670   -0.8190   -1.1820 H   0  0  0  0  0  0  0  0  0  0  0  0
    4.3220   -1.9590   -1.4640 C   0  0  0  0  0  0  0  0  0  0  0  0
    5.1810   -1.6990   -2.0960 H   0  0  0  0  0  0  0  0  0  0  0  0
    4.0950   -3.0160   -1.6490 H   0  0  0  0  0  0  0  0  0  0  0  0
    5.8440    0.0650    1.2440 C   0  0  0  0  0  0  0  0  0  0  0  0
    6.3180   -0.6850    1.8710 H   0  0  0  0  0  0  0  0  0  0  0  0
    6.1500    1.4430    1.5130 C   0  0  0  0  0  0  0  0  0  0  0  0
    6.8380    1.6710    2.3200 H   0  0  0  0  0  0  0  0  0  0  0  0
    5.5890    2.4160    0.7900 C   0  0  0  0  0  0  0  0  0  0  0  0
    5.7910    3.4650    0.9630 H   0  0  0  0  0  0  0  0  0  0  0  0
   -3.5270   -2.9720    0.6770 C   0  0  0  0  0  0  0  0  0  0  0  0
   -0.0430   -3.3940    1.1070 O   0  0  0  0  0  0  0  0  0  0  0  0
    1.6780   -0.9320    2.6690 O   0  0  0  0  0  0  0  0  0  0  0  0
   -3.6060    3.2220    0.0310 C   0  0  0  0  0  0  0  0  0  0  0  0
    4.1760    2.9900   -0.9860 O   0  0  0  0  0  0  0  0  0  0  0  0
   -4.7170    4.0040   -0.2910 N   0  0  0  0  0  0  0  0  0  0  0  0
   -1.2900    1.6490    0.6910 C   0  0  0  0  0  0  0  0  0  0  0  0
   -2.8220    2.5860   -0.9520 C   0  0  0  0  0  0  0  0  0  0  0  0
   -3.0680    2.6880   -2.0050 H   0  0  0  0  0  0  0  0  0  0  0  0
   -3.1870    3.0200    1.3590 C   0  0  0  0  0  0  0  0  0  0  0  0
   -3.7340    3.4650    2.1860 H   0  0  0  0  0  0  0  0  0  0  0  0
   -3.9020   -1.5770    1.9120 Br  0  0  0  0  0  0  0  0  0  0  0  0
   -2.0530    2.2530    1.6880 C   0  0  0  0  0  0  0  0  0  0  0  0
   -1.7770    2.1460    2.7350 H   0  0  0  0  0  0  0  0  0  0  0  0
   -1.6860    1.8150   -0.6350 C   0  0  0  0  0  0  0  0  0  0  0  0
   -1.1120    1.3690   -1.4440 H   0  0  0  0  0  0  0  0  0  0  0  0
   -2.0560   -4.4520   -0.5550 C   0  0  0  0  0  0  0  0  0  0  0  0
   -1.0550   -4.7740   -0.8390 H   0  0  0  0  0  0  0  0  0  0  0  0
   -5.4810    4.6900    0.7450 C   0  0  0  0  0  0  0  0  0  0  0  0
   -6.3000    5.2840    0.3240 H   0  0  0  0  0  0  0  0  0  0  0  0
   -4.8440    5.3830    1.3050 H   0  0  0  0  0  0  0  0  0  0  0  0
   -5.9320    3.9700    1.4360 H   0  0  0  0  0  0  0  0  0  0  0  0
   -5.1490    4.1640   -1.6730 C   0  0  0  0  0  0  0  0  0  0  0  0
   -6.0510    4.7800   -1.7520 H   0  0  0  0  0  0  0  0  0  0  0  0
   -5.3890    3.1930   -2.1220 H   0  0  0  0  0  0  0  0  0  0  0  0
   -4.3730    4.6580   -2.2690 H   0  0  0  0  0  0  0  0  0  0  0  0
   -4.6290   -3.6650    0.1620 C   0  0  0  0  0  0  0  0  0  0  0  0
   -5.6430   -3.3830    0.4390 H   0  0  0  0  0  0  0  0  0  0  0  0
   -3.1580   -5.1390   -1.0620 C   0  0  0  0  0  0  0  0  0  0  0  0
   -3.0150   -5.9850   -1.7300 H   0  0  0  0  0  0  0  0  0  0  0  0
   -4.4440   -4.7410   -0.7080 C   0  0  0  0  0  0  0  0  0  0  0  0
   -5.3050   -5.2740   -1.1000 H   0  0  0  0  0  0  0  0  0  0  0  0
    5.5050   -2.3600    0.2750 H   0  0  0  0  0  0  0  0  0  0  0  0
    2.8430   -1.2430   -2.8590 H   0  0  0  0  0  0  0  0  0  0  0  0
  1  3  1  0  0  0  0
  1 11  1  0  0  0  0
  1 18  1  0  0  0  0
  2  5  1  0  0  0  0
  2 12  1  0  0  0  0
  2 21  1  0  0  0  0
  3  6  1  0  0  0  0
  3 27  2  0  0  0  0
  4  5  1  0  0  0  0
  4  8  1  0  0  0  0
  4 15  2  0  0  0  0
  5 35  2  0  0  0  0
  6 12  1  0  0  0  0
  6 24  1  0  0  0  0
  6 65  1  0  0  0  0
  7  8  1  0  0  0  0
  7 10  1  0  0  0  0
  7 34  2  0  0  0  0
  8  9  1  0  0  0  0
 10 33  2  0  0  0  0
 10 49  1  0  0  0  0
 11 31  1  0  0  0  0
 11 37  2  0  0  0  0
 12 13  1  0  0  0  0
 12 14  1  0  0  0  0
 15 16  1  0  0  0  0
 15 39  1  0  0  0  0
 17 18  1  0  0  0  0
 17 21  1  0  0  0  0
 17 24  1  0  0  0  0
 17 66  1  0  0  0  0
 18 19  1  0  0  0  0
 18 20  1  0  0  0  0
 21 22  1  0  0  0  0
 21 23  1  0  0  0  0
 24 25  1  0  0  0  0
 24 26  1  0  0  0  0
 27 28  1  0  0  0  0
 27 29  1  0  0  0  0
 29 30  1  0  0  0  0
 29 31  2  0  0  0  0
 31 32  1  0  0  0  0
 33 44  1  0  0  0  0
 33 59  1  0  0  0  0
 36 38  1  0  0  0  0
 36 40  1  0  0  0  0
 36 42  2  0  0  0  0
 38 51  1  0  0  0  0
 38 55  1  0  0  0  0
 39 45  2  0  0  0  0
 39 47  1  0  0  0  0
 40 41  1  0  0  0  0
 40 47  2  0  0  0  0
 42 43  1  0  0  0  0
 42 45  1  0  0  0  0
 45 46  1  0  0  0  0
 47 48  1  0  0  0  0
 49 50  1  0  0  0  0
 49 61  2  0  0  0  0
 51 52  1  0  0  0  0
 51 53  1  0  0  0  0
 51 54  1  0  0  0  0
 55 56  1  0  0  0  0
 55 57  1  0  0  0  0
 55 58  1  0  0  0  0
 59 60  1  0  0  0  0
 59 63  2  0  0  0  0
 61 62  1  0  0  0  0
 61 63  1  0  0  0  0
 63 64  1  0  0  0  0
M  END
>  <IDNUMBER>
AN-919/14028009

>  <NAME>
2-bromo-N-{2-[4-(dimethylamino)phenyl]-1-[(6-oxo-7,11-diazatricyclo[7.3.1.0~2,7~]trideca-2,4-dien-11-yl)carbonyl]vinyl}benzamide

>  <ADD_INFO>
http://www.specs.net/enter.php?specsid=AN-919/14028009

>  <H_ACCEPTORS>
7

>  <H_DONORS>
1

>  <ROTATABLE_BONDS>
7

>  <LOGP>
4.52

>  <LOGS>
-7.1500001

>  <TPSA>
72.959999

>  <PRICE>
N04

$$$$
AN-919/14028010
  MOE2011           3D

 55 59  0  0  1  0  0  0  0  0999 V2000
    3.2480   -0.7570    0.5570 N   0  0  0  0  0  0  0  0  0  0  0  0
    0.0970   -0.8370   -0.5350 N   0  0  0  0  0  0  0  0  0  0  0  0
    3.0940   -1.5040   -0.6130 C   0  0  0  0  0  0  0  0  0  0  0  0
   -1.1460    1.2850   -0.3070 C   0  0  0  0  0  0  0  0  0  0  0  0
   -0.4100    0.3000   -1.1660 C   0  0  0  0  0  0  0  0  0  0  0  0
    1.9590   -2.5060   -0.7170 C   0  0  3  0  0  0  0  0  0  0  0  0
   -3.2550    0.0040   -0.4480 C   0  0  0  0  0  0  0  0  0  0  0  0
   -2.4860    1.0710   -0.0190 N   0  0  0  0  0  0  0  0  0  0  0  0
   -2.9470    1.7730    0.5520 H   0  0  0  0  0  0  0  0  0  0  0  0
   -0.5290    2.3750    0.1910 C   0  0  0  0  0  0  0  0  0  0  0  0
   -1.1000    3.0400    0.8370 H   0  0  0  0  0  0  0  0  0  0  0  0
   -4.6550    0.0640    0.0140 C   0  0  0  0  0  0  0  0  0  0  0  0
    4.2830    0.1750    0.7140 C   0  0  0  0  0  0  0  0  0  0  0  0
    0.7270   -1.8600   -1.3700 C   0  0  0  0  0  0  0  0  0  0  0  0
   -0.0400   -2.6260   -1.5440 H   0  0  0  0  0  0  0  0  0  0  0  0
    0.9870   -1.4520   -2.3530 H   0  0  0  0  0  0  0  0  0  0  0  0
    1.1580   -1.8640    1.5120 C   0  0  3  0  0  0  0  0  0  0  0  0
    0.8280    2.7410   -0.0310 C   0  0  0  0  0  0  0  0  0  0  0  0
    2.3570   -0.9290    1.7030 C   0  0  0  0  0  0  0  0  0  0  0  0
    2.9860   -1.3320    2.5090 H   0  0  0  0  0  0  0  0  0  0  0  0
    2.0290    0.0600    2.0460 H   0  0  0  0  0  0  0  0  0  0  0  0
   -0.0490   -1.1410    0.8920 C   0  0  0  0  0  0  0  0  0  0  0  0
   -0.2750   -0.2400    1.4690 H   0  0  0  0  0  0  0  0  0  0  0  0
   -0.9300   -1.7910    0.9680 H   0  0  0  0  0  0  0  0  0  0  0  0
    1.5780   -3.0510    0.6560 C   0  0  0  0  0  0  0  0  0  0  0  0
    0.7570   -3.7730    0.5710 H   0  0  0  0  0  0  0  0  0  0  0  0
    2.4240   -3.5780    1.1150 H   0  0  0  0  0  0  0  0  0  0  0  0
    1.6560    3.4250    1.3120 S   0  0  0  0  0  0  0  0  0  0  0  0
    3.9590   -1.3420   -1.6300 C   0  0  0  0  0  0  0  0  0  0  0  0
    3.8690   -1.9130   -2.5500 H   0  0  0  0  0  0  0  0  0  0  0  0
    5.0300   -0.3870   -1.5460 C   0  0  0  0  0  0  0  0  0  0  0  0
    5.6890   -0.2760   -2.4000 H   0  0  0  0  0  0  0  0  0  0  0  0
    5.2010    0.3470   -0.4430 C   0  0  0  0  0  0  0  0  0  0  0  0
    5.9930    1.0750   -0.3400 H   0  0  0  0  0  0  0  0  0  0  0  0
   -5.7090    0.3120   -0.8710 C   0  0  0  0  0  0  0  0  0  0  0  0
   -2.9030   -0.9520   -1.1240 O   0  0  0  0  0  0  0  0  0  0  0  0
   -0.3070    0.5260   -2.3720 O   0  0  0  0  0  0  0  0  0  0  0  0
    4.4850    0.8330    1.7330 O   0  0  0  0  0  0  0  0  0  0  0  0
    3.0890    3.6450    0.4100 C   0  0  0  0  0  0  0  0  0  0  0  0
    3.9670    4.0670    0.8780 H   0  0  0  0  0  0  0  0  0  0  0  0
    1.6440    2.7080   -1.1460 C   0  0  0  0  0  0  0  0  0  0  0  0
    1.3280    2.3460   -2.1170 H   0  0  0  0  0  0  0  0  0  0  0  0
    2.9470    3.2290   -0.8930 C   0  0  0  0  0  0  0  0  0  0  0  0
    3.7370    3.2930   -1.6310 H   0  0  0  0  0  0  0  0  0  0  0  0
   -5.4370    0.6430   -2.7180 Br  0  0  0  0  0  0  0  0  0  0  0  0
   -4.9040   -0.1470    1.3770 C   0  0  0  0  0  0  0  0  0  0  0  0
   -4.0900   -0.3570    2.0660 H   0  0  0  0  0  0  0  0  0  0  0  0
   -7.0180    0.3530   -0.3850 C   0  0  0  0  0  0  0  0  0  0  0  0
   -7.8540    0.5480   -1.0520 H   0  0  0  0  0  0  0  0  0  0  0  0
   -6.2140   -0.1050    1.8530 C   0  0  0  0  0  0  0  0  0  0  0  0
   -6.4180   -0.2710    2.9080 H   0  0  0  0  0  0  0  0  0  0  0  0
   -7.2680    0.1440    0.9740 C   0  0  0  0  0  0  0  0  0  0  0  0
   -8.2880    0.1750    1.3470 H   0  0  0  0  0  0  0  0  0  0  0  0
    2.2770   -3.3500   -1.3430 H   0  0  0  0  0  0  0  0  0  0  0  0
    0.8490   -2.2190    2.5030 H   0  0  0  0  0  0  0  0  0  0  0  0
  1  3  1  0  0  0  0
  1 13  1  0  0  0  0
  1 19  1  0  0  0  0
  2  5  1  0  0  0  0
  2 14  1  0  0  0  0
  2 22  1  0  0  0  0
  3  6  1  0  0  0  0
  3 29  2  0  0  0  0
  4  5  1  0  0  0  0
  4  8  1  0  0  0  0
  4 10  2  0  0  0  0
  5 37  2  0  0  0  0
  6 14  1  0  0  0  0
  6 25  1  0  0  0  0
  6 54  1  0  0  0  0
  7  8  1  0  0  0  0
  7 12  1  0  0  0  0
  7 36  2  0  0  0  0
  8  9  1  0  0  0  0
 10 11  1  0  0  0  0
 10 18  1  0  0  0  0
 12 35  2  0  0  0  0
 12 46  1  0  0  0  0
 13 33  1  0  0  0  0
 13 38  2  0  0  0  0
 14 15  1  0  0  0  0
 14 16  1  0  0  0  0
 17 19  1  0  0  0  0
 17 22  1  0  0  0  0
 17 25  1  0  0  0  0
 17 55  1  0  0  0  0
 18 28  1  0  0  0  0
 18 41  2  0  0  0  0
 19 20  1  0  0  0  0
 19 21  1  0  0  0  0
 22 23  1  0  0  0  0
 22 24  1  0  0  0  0
 25 26  1  0  0  0  0
 25 27  1  0  0  0  0
 28 39  1  0  0  0  0
 29 30  1  0  0  0  0
 29 31  1  0  0  0  0
 31 32  1  0  0  0  0
 31 33  2  0  0  0  0
 33 34  1  0  0  0  0
 35 45  1  0  0  0  0
 35 48  1  0  0  0  0
 39 40  1  0  0  0  0
 39 43  2  0  0  0  0
 41 42  1  0  0  0  0
 41 43  1  0  0  0  0
 43 44  1  0  0  0  0
 46 47  1  0  0  0  0
 46 50  2  0  0  0  0
 48 49  1  0  0  0  0
 48 52  2  0  0  0  0
 50 51  1  0  0  0  0
 50 52  1  0  0  0  0
 52 53  1  0  0  0  0
M  END
>  <IDNUMBER>
AN-919/14028010

>  <NAME>
2-bromo-N-[1-[(6-oxo-7,11-diazatricyclo[7.3.1.0~2,7~]trideca-2,4-dien-11-yl)carbonyl]-2-(2-thienyl)vinyl]benzamide

>  <ADD_INFO>
http://www.specs.net/enter.php?specsid=AN-919/14028010

>  <H_ACCEPTORS>
6

>  <H_DONORS>
1

>  <ROTATABLE_BONDS>
6

>  <LOGP>
4.1599998

>  <LOGS>
-6.5700002

>  <TPSA>
97.959999

>  <PRICE>
N04

$$$$
AN-970/40920732
  MOE2011           3D

 25 26  0  0  0  0  0  0  0  0999 V2000
   -0.4500    1.1170    0.0050 C   0  0  0  0  0  0  0  0  0  0  0  0
   -1.8540    1.5260    0.0000 C   0  0  0  0  0  0  0  0  0  0  0  0
   -0.1470   -0.2390    0.0090 C   0  0  0  0  0  0  0  0  0  0  0  0
   -2.8600    0.4540   -0.0020 C   0  0  0  0  0  0  0  0  0  0  0  0
   -3.9020    0.7460   -0.0080 H   0  0  0  0  0  0  0  0  0  0  0  0
    0.5710    2.0660    0.0050 C   0  0  0  0  0  0  0  0  0  0  0  0
   -1.1160   -1.2130    0.0100 O   0  0  0  0  0  0  0  0  0  0  0  0
   -2.4480   -0.8230    0.0030 C   0  0  0  0  0  0  0  0  0  0  0  0
    1.1870   -0.6570    0.0110 C   0  0  0  0  0  0  0  0  0  0  0  0
    1.3910   -1.7220    0.0150 H   0  0  0  0  0  0  0  0  0  0  0  0
    1.9000    1.6560    0.0080 C   0  0  0  0  0  0  0  0  0  0  0  0
    2.6940    2.3980    0.0080 H   0  0  0  0  0  0  0  0  0  0  0  0
    2.2160    0.2920    0.0100 C   0  0  0  0  0  0  0  0  0  0  0  0
   -2.1470    2.7170   -0.0030 O   0  0  0  0  0  0  0  0  0  0  0  0
    0.3090    3.4110    0.0020 O   0  0  0  0  0  0  0  0  0  0  0  0
   -0.6740    3.5180   -0.0010 H   0  0  0  0  0  0  0  0  0  0  0  0
    3.5570    0.0180    0.0090 O   0  0  0  0  0  0  0  0  0  0  0  0
   -3.4070   -1.9720    0.0030 C   0  0  0  0  0  0  0  0  0  0  0  0
   -3.2470   -2.5970   -0.8820 H   0  0  0  0  0  0  0  0  0  0  0  0
   -4.4500   -1.6400   -0.0030 H   0  0  0  0  0  0  0  0  0  0  0  0
   -3.2550   -2.5910    0.8940 H   0  0  0  0  0  0  0  0  0  0  0  0
    3.9360   -1.3520   -0.0180 C   0  0  0  0  0  0  0  0  0  0  0  0
    5.0300   -1.3960   -0.0320 H   0  0  0  0  0  0  0  0  0  0  0  0
    3.5720   -1.8450   -0.9250 H   0  0  0  0  0  0  0  0  0  0  0  0
    3.5930   -1.8740    0.8810 H   0  0  0  0  0  0  0  0  0  0  0  0
  1  2  1  0  0  0  0
  1  3  2  0  0  0  0
  1  6  1  0  0  0  0
  2  4  1  0  0  0  0
  2 14  2  0  0  0  0
  3  7  1  0  0  0  0
  3  9  1  0  0  0  0
  4  5  1  0  0  0  0
  4  8  2  0  0  0  0
  6 11  2  0  0  0  0
  6 15  1  0  0  0  0
  7  8  1  0  0  0  0
  8 18  1  0  0  0  0
  9 10  1  0  0  0  0
  9 13  2  0  0  0  0
 11 12  1  0  0  0  0
 11 13  1  0  0  0  0
 13 17  1  0  0  0  0
 15 16  1  0  0  0  0
 17 22  1  0  0  0  0
 18 19  1  0  0  0  0
 18 20  1  0  0  0  0
 18 21  1  0  0  0  0
 22 23  1  0  0  0  0
 22 24  1  0  0  0  0
 22 25  1  0  0  0  0
M  END
>  <IDNUMBER>
AN-970/40920732

>  <NAME>
5-hydroxy-7-methoxy-2-methyl-4H-chromen-4-one

>  <ADD_INFO>
http://www.specs.net/enter.php?specsid=AN-970/40920732

>  <H_ACCEPTORS>
1

>  <H_DONORS>
1

>  <ROTATABLE_BONDS>
1

>  <LOGP>
2.6700001

>  <LOGS>
-2.4000001

>  <TPSA>
55.759998

>  <PRICE>
N07

$$$$
AO-103/41868968
  MOE2011           3D

 36 38  0  0  1  0  0  0  0  0999 V2000
   -0.8250   -0.8200    0.1460 C   0  0  2  0  0  0  0  0  0  0  0  0
    0.6370   -0.4640   -0.0390 C   0  0  0  0  0  0  0  0  0  0  0  0
   -1.3960   -0.9720   -1.1620 O   0  0  0  0  0  0  0  0  0  0  0  0
   -2.6410   -0.4280   -1.2080 C   0  0  0  0  0  0  0  0  0  0  0  0
   -1.6890    0.2100    0.8750 C   0  0  2  0  0  0  0  0  0  0  0  0
    0.9740    0.9000   -0.2530 C   0  0  0  0  0  0  0  0  0  0  0  0
    1.6470   -1.4590   -0.0750 C   0  0  0  0  0  0  0  0  0  0  0  0
   -3.0210    0.1350    0.1300 C   0  0  2  0  0  0  0  0  0  0  0  0
    2.9770   -1.0460   -0.2320 C   0  0  0  0  0  0  0  0  0  0  0  0
    2.3110    1.2740   -0.4910 C   0  0  0  0  0  0  0  0  0  0  0  0
   -1.0990    1.6290    0.8980 C   0  0  0  0  0  0  0  0  0  0  0  0
   -1.8910    2.3860    0.9310 H   0  0  0  0  0  0  0  0  0  0  0  0
   -0.5380    1.7460    1.8360 H   0  0  0  0  0  0  0  0  0  0  0  0
    3.3030    0.2900   -0.4520 C   0  0  0  0  0  0  0  0  0  0  0  0
    4.3480    0.5560   -0.5970 H   0  0  0  0  0  0  0  0  0  0  0  0
   -0.1490    1.9120   -0.2580 C   0  0  0  0  0  0  0  0  0  0  0  0
    0.2270    2.9320   -0.1370 H   0  0  0  0  0  0  0  0  0  0  0  0
   -0.6710    1.8710   -1.2210 H   0  0  0  0  0  0  0  0  0  0  0  0
   -3.3570   -0.4370   -2.1980 O   0  0  0  0  0  0  0  0  0  0  0  0
    4.0390   -1.9080   -0.1880 O   0  0  0  0  0  0  0  0  0  0  0  0
    3.7740   -2.7140    0.2810 H   0  0  0  0  0  0  0  0  0  0  0  0
    1.3020   -2.9190    0.0630 C   0  0  0  0  0  0  0  0  0  0  0  0
    0.3750   -3.1610   -0.4670 H   0  0  0  0  0  0  0  0  0  0  0  0
    1.1960   -3.1820    1.1200 H   0  0  0  0  0  0  0  0  0  0  0  0
    2.0620   -3.5650   -0.3870 H   0  0  0  0  0  0  0  0  0  0  0  0
   -4.0170   -0.8010    0.8050 C   0  0  0  0  0  0  0  0  0  0  0  0
   -4.2800   -0.4340    1.8020 H   0  0  0  0  0  0  0  0  0  0  0  0
   -3.6150   -1.8150    0.9070 H   0  0  0  0  0  0  0  0  0  0  0  0
   -4.9390   -0.8730    0.2170 H   0  0  0  0  0  0  0  0  0  0  0  0
    2.7130    2.6990   -0.7540 C   0  0  0  0  0  0  0  0  0  0  0  0
    3.7670    2.7720   -1.0430 H   0  0  0  0  0  0  0  0  0  0  0  0
    2.5710    3.3050    0.1460 H   0  0  0  0  0  0  0  0  0  0  0  0
    2.1250    3.1170   -1.5770 H   0  0  0  0  0  0  0  0  0  0  0  0
   -0.9320   -1.7780    0.6660 H   0  0  0  0  0  0  0  0  0  0  0  0
   -1.8190   -0.0840    1.9250 H   0  0  0  0  0  0  0  0  0  0  0  0
   -3.4680    1.1250   -0.0090 H   0  0  0  0  0  0  0  0  0  0  0  0
  1  2  1  0  0  0  0
  1  3  1  0  0  0  0
  1  5  1  0  0  0  0
  1 34  1  0  0  0  0
  2  6  2  0  0  0  0
  2  7  1  0  0  0  0
  3  4  1  0  0  0  0
  4  8  1  0  0  0  0
  4 19  2  0  0  0  0
  5  8  1  0  0  0  0
  5 11  1  0  0  0  0
  5 35  1  0  0  0  0
  6 10  1  0  0  0  0
  6 16  1  0  0  0  0
  7  9  2  0  0  0  0
  7 22  1  0  0  0  0
  8 26  1  0  0  0  0
  8 36  1  0  0  0  0
  9 14  1  0  0  0  0
  9 20  1  0  0  0  0
 10 14  2  0  0  0  0
 10 30  1  0  0  0  0
 11 12  1  0  0  0  0
 11 13  1  0  0  0  0
 11 16  1  0  0  0  0
 14 15  1  0  0  0  0
 16 17  1  0  0  0  0
 16 18  1  0  0  0  0
 20 21  1  0  0  0  0
 22 23  1  0  0  0  0
 22 24  1  0  0  0  0
 22 25  1  0  0  0  0
 26 27  1  0  0  0  0
 26 28  1  0  0  0  0
 26 29  1  0  0  0  0
 30 31  1  0  0  0  0
 30 32  1  0  0  0  0
 30 33  1  0  0  0  0
M  END
>  <IDNUMBER>
AO-103/41868968

>  <NAME>
alpha-Desmotroposantonin

>  <ADD_INFO>
http://www.specs.net/enter.php?specsid=AO-103/41868968

>  <H_ACCEPTORS>
2

>  <H_DONORS>
1

>  <ROTATABLE_BONDS>
0

>  <LOGP>
2.6199999

>  <LOGS>
-2.6600001

>  <TPSA>
46.529999

>  <PRICE>
N07

>  <STEREOCHEM>
R,S-isomer

$$$$
AO-222/41148796
  MOE2011           3D

 52 55  0  0  1  0  0  0  0  0999 V2000
    0.5730   -0.3820   -0.0090 C   0  0  1  0  0  0  0  0  0  0  0  0
    1.9900    0.1320   -0.4210 C   0  0  2  0  0  0  0  0  0  0  0  0
   -0.4500    0.7090   -0.5430 C   0  0  2  0  0  0  0  0  0  0  0  0
    3.8020   -0.0460    1.0910 C   0  0  0  0  0  0  0  0  0  0  0  0
    3.1770   -0.7710   -0.0790 C   0  0  1  0  0  0  0  0  0  0  0  0
    3.3380    1.2370    1.1610 O   0  0  0  0  0  0  0  0  0  0  0  0
    2.3390    1.4890    0.1570 C   0  0  2  0  0  0  0  0  0  0  0  0
   -0.2130    2.0940    0.1640 C   0  0  1  0  0  0  0  0  0  0  0  0
    1.1880    2.2590    0.8020 C   0  0  0  0  0  0  0  0  0  0  0  0
    1.1190    1.9680    1.8590 H   0  0  0  0  0  0  0  0  0  0  0  0
    1.4650    3.3210    0.8620 H   0  0  0  0  0  0  0  0  0  0  0  0
   -1.9500    0.2900   -0.5500 C   0  0  0  0  0  0  0  0  0  0  0  0
   -2.5270    1.1020   -1.0170 H   0  0  0  0  0  0  0  0  0  0  0  0
   -2.0780   -0.5480   -1.2500 H   0  0  0  0  0  0  0  0  0  0  0  0
   -4.0900   -0.2960    0.6050 C   0  0  0  0  0  0  0  0  0  0  0  0
    4.6340   -0.5100    1.8560 O   0  0  0  0  0  0  0  0  0  0  0  0
   -6.3120    0.0720    0.5030 O   0  0  0  0  0  0  0  0  0  0  0  0
   -5.1000    0.6360    0.7370 C   0  0  0  0  0  0  0  0  0  0  0  0
   -5.1200    1.6890    0.9800 H   0  0  0  0  0  0  0  0  0  0  0  0
   -4.7430   -1.5150    0.2690 C   0  0  0  0  0  0  0  0  0  0  0  0
   -4.2860   -2.4770    0.0850 H   0  0  0  0  0  0  0  0  0  0  0  0
   -6.0890   -1.2360    0.2190 C   0  0  0  0  0  0  0  0  0  0  0  0
   -6.9690   -1.8260    0.0070 H   0  0  0  0  0  0  0  0  0  0  0  0
   -0.1370    0.8900   -1.9480 O   0  0  0  0  0  0  0  0  0  0  0  0
   -0.8590    1.3810   -2.3770 H   0  0  0  0  0  0  0  0  0  0  0  0
   -2.6220   -0.0720    0.7740 C   0  0  0  0  0  0  0  0  0  0  0  0
   -2.4720    0.7170    1.5190 H   0  0  0  0  0  0  0  0  0  0  0  0
   -2.1880   -0.9910    1.1800 H   0  0  0  0  0  0  0  0  0  0  0  0
    0.4020   -1.7480   -0.7320 C   0  0  0  0  0  0  0  0  0  0  0  0
   -0.5080   -2.2520   -0.3830 H   0  0  0  0  0  0  0  0  0  0  0  0
    0.2420   -1.5870   -1.8060 H   0  0  0  0  0  0  0  0  0  0  0  0
    0.4210   -0.6100    1.5220 C   0  0  0  0  0  0  0  0  0  0  0  0
    1.3690   -0.5580    2.0610 H   0  0  0  0  0  0  0  0  0  0  0  0
   -0.0160   -1.5890    1.7470 H   0  0  0  0  0  0  0  0  0  0  0  0
   -0.2260    0.1300    2.0010 H   0  0  0  0  0  0  0  0  0  0  0  0
    2.7550   -2.2050    0.2690 C   0  0  0  0  0  0  0  0  0  0  0  0
    3.6050   -2.8910    0.1570 H   0  0  0  0  0  0  0  0  0  0  0  0
    2.4810   -2.2890    1.3270 H   0  0  0  0  0  0  0  0  0  0  0  0
    4.2140   -0.7750   -1.2150 C   0  0  0  0  0  0  0  0  0  0  0  0
    3.8030   -1.2230   -2.1270 H   0  0  0  0  0  0  0  0  0  0  0  0
    5.1070   -1.3450   -0.9320 H   0  0  0  0  0  0  0  0  0  0  0  0
    4.5490    0.2400   -1.4610 H   0  0  0  0  0  0  0  0  0  0  0  0
    1.5940   -2.7110   -0.5880 C   0  0  0  0  0  0  0  0  0  0  0  0
    1.9740   -2.9420   -1.5920 H   0  0  0  0  0  0  0  0  0  0  0  0
    1.2390   -3.6650   -0.1810 H   0  0  0  0  0  0  0  0  0  0  0  0
   -0.5160    3.3060   -0.7300 C   0  0  0  0  0  0  0  0  0  0  0  0
   -0.4750    4.2330   -0.1460 H   0  0  0  0  0  0  0  0  0  0  0  0
   -1.5190    3.2420   -1.1610 H   0  0  0  0  0  0  0  0  0  0  0  0
    0.2100    3.3980   -1.5440 H   0  0  0  0  0  0  0  0  0  0  0  0
    1.9830    0.2390   -1.5150 H   0  0  0  0  0  0  0  0  0  0  0  0
    2.8070    2.1170   -0.6110 H   0  0  0  0  0  0  0  0  0  0  0  0
   -0.9160    2.1700    1.0030 H   0  0  0  0  0  0  0  0  0  0  0  0
  1  2  1  0  0  0  0
  1  3  1  0  0  0  0
  1 29  1  0  0  0  0
  1 32  1  0  0  0  0
  2  5  1  0  0  0  0
  2  7  1  0  0  0  0
  2 50  1  0  0  0  0
  3  8  1  0  0  0  0
  3 12  1  0  0  0  0
  3 24  1  0  0  0  0
  4  5  1  0  0  0  0
  4  6  1  0  0  0  0
  4 16  2  0  0  0  0
  5 36  1  0  0  0  0
  5 39  1  0  0  0  0
  6  7  1  0  0  0  0
  7  9  1  0  0  0  0
  7 51  1  0  0  0  0
  8  9  1  0  0  0  0
  8 46  1  0  0  0  0
  8 52  1  0  0  0  0
  9 10  1  0  0  0  0
  9 11  1  0  0  0  0
 12 13  1  0  0  0  0
 12 14  1  0  0  0  0
 12 26  1  0  0  0  0
 15 18  2  0  0  0  0
 15 20  1  0  0  0  0
 15 26  1  0  0  0  0
 17 18  1  0  0  0  0
 17 22  1  0  0  0  0
 18 19  1  0  0  0  0
 20 21  1  0  0  0  0
 20 22  2  0  0  0  0
 22 23  1  0  0  0  0
 24 25  1  0  0  0  0
 26 27  1  0  0  0  0
 26 28  1  0  0  0  0
 29 30  1  0  0  0  0
 29 31  1  0  0  0  0
 29 43  1  0  0  0  0
 32 33  1  0  0  0  0
 32 34  1  0  0  0  0
 32 35  1  0  0  0  0
 36 37  1  0  0  0  0
 36 38  1  0  0  0  0
 36 43  1  0  0  0  0
 39 40  1  0  0  0  0
 39 41  1  0  0  0  0
 39 42  1  0  0  0  0
 43 44  1  0  0  0  0
 43 45  1  0  0  0  0
 46 47  1  0  0  0  0
 46 48  1  0  0  0  0
 46 49  1  0  0  0  0
M  END
>  <IDNUMBER>
AO-222/41148796

>  <NAME>
Marrubiin (Marrubium bitter).

>  <ADD_INFO>
http://www.specs.net/enter.php?specsid=AO-222/41148796

>  <H_ACCEPTORS>
3

>  <H_DONORS>
1

>  <ROTATABLE_BONDS>
3

>  <LOGP>
4.0799999

>  <LOGS>
-4.5999999

>  <TPSA>
59.669998

>  <PRICE>
N07

$$$$
AO-222/41148830
  MOE2011           3D

 73 75  0  0  1  0  0  0  0  0999 V2000
    1.2740   -0.2440   -0.6040 C   0  0  0  0  0  0  0  0  0  0  0  0
    0.2380   -1.1170   -0.4260 C   0  0  0  0  0  0  0  0  0  0  0  0
   -1.2400   -0.7020   -0.7420 C   0  0  2  0  0  0  0  0  0  0  0  0
   -1.3540    0.8230   -0.3400 C   0  0  2  0  0  0  0  0  0  0  0  0
    2.7300   -0.7280   -0.5230 C   0  0  2  0  0  0  0  0  0  0  0  0
   -2.7930    1.4090   -0.1370 C   0  0  2  0  0  0  0  0  0  0  0  0
    1.0520    1.1980   -1.0620 C   0  0  1  0  0  0  0  0  0  0  0  0
   -2.4560   -1.4730   -0.0790 C   0  0  1  0  0  0  0  0  0  0  0  0
   -0.4090    1.6740   -1.2000 C   0  0  0  0  0  0  0  0  0  0  0  0
   -0.4740    2.7330   -0.9270 H   0  0  0  0  0  0  0  0  0  0  0  0
   -0.7130    1.6220   -2.2520 H   0  0  0  0  0  0  0  0  0  0  0  0
    2.9290   -1.9380    0.4500 C   0  0  2  0  0  0  0  0  0  0  0  0
   -2.6540    2.8180    0.5000 C   0  0  0  0  0  0  0  0  0  0  0  0
    0.4970   -2.5640   -0.0550 C   0  0  0  0  0  0  0  0  0  0  0  0
    0.0740   -2.7380    0.9410 H   0  0  0  0  0  0  0  0  0  0  0  0
   -0.0220   -3.2220   -0.7610 H   0  0  0  0  0  0  0  0  0  0  0  0
    3.6330    0.3380   -0.1580 O   0  0  0  0  0  0  0  0  0  0  0  0
    1.7820    2.1970   -0.2950 O   0  0  0  0  0  0  0  0  0  0  0  0
   -3.5830    0.5330    0.8940 C   0  0  0  0  0  0  0  0  0  0  0  0
   -3.7470    1.0560    1.8440 H   0  0  0  0  0  0  0  0  0  0  0  0
   -4.5940    0.3350    0.5110 H   0  0  0  0  0  0  0  0  0  0  0  0
   -2.1900   -2.8730    0.1580 O   0  0  0  0  0  0  0  0  0  0  0  0
    4.7260    0.5340   -0.9460 C   0  0  0  0  0  0  0  0  0  0  0  0
   -3.0970   -3.8760    0.0780 C   0  0  0  0  0  0  0  0  0  0  0  0
    1.6560    2.2830    1.0560 C   0  0  0  0  0  0  0  0  0  0  0  0
   -2.9220   -0.8120    1.2130 C   0  0  0  0  0  0  0  0  0  0  0  0
   -3.6360   -1.4500    1.7450 H   0  0  0  0  0  0  0  0  0  0  0  0
   -2.0790   -0.6840    1.9030 H   0  0  0  0  0  0  0  0  0  0  0  0
    1.9560   -3.0270   -0.0370 C   0  0  0  0  0  0  0  0  0  0  0  0
    2.2310   -3.3230   -1.0590 H   0  0  0  0  0  0  0  0  0  0  0  0
    2.0420   -3.9440    0.5610 H   0  0  0  0  0  0  0  0  0  0  0  0
    2.7430   -1.5170    1.9110 C   0  0  0  0  0  0  0  0  0  0  0  0
    3.1890   -0.5610    2.1860 H   0  0  0  0  0  0  0  0  0  0  0  0
   -2.3390    3.0160    1.6680 O   0  0  0  0  0  0  0  0  0  0  0  0
   -2.7910   -5.0300    0.3650 O   0  0  0  0  0  0  0  0  0  0  0  0
    5.0290   -0.1180   -1.9350 O   0  0  0  0  0  0  0  0  0  0  0  0
    1.0050    1.5510    1.7840 O   0  0  0  0  0  0  0  0  0  0  0  0
    2.1160   -2.1870    2.8870 C   0  0  0  0  0  0  0  0  0  0  0  0
    2.0570   -1.7660    3.8860 H   0  0  0  0  0  0  0  0  0  0  0  0
    1.6520   -3.1540    2.7330 H   0  0  0  0  0  0  0  0  0  0  0  0
   -1.3660   -0.9640   -2.2730 C   0  0  0  0  0  0  0  0  0  0  0  0
   -0.5330   -0.5500   -2.8510 H   0  0  0  0  0  0  0  0  0  0  0  0
   -2.2820   -0.5440   -2.6930 H   0  0  0  0  0  0  0  0  0  0  0  0
   -1.3840   -2.0410   -2.4810 H   0  0  0  0  0  0  0  0  0  0  0  0
   -2.8900    3.8160   -0.4000 O   0  0  0  0  0  0  0  0  0  0  0  0
   -3.6080    1.4930   -1.4410 C   0  0  0  0  0  0  0  0  0  0  0  0
   -3.9160    0.5090   -1.8020 H   0  0  0  0  0  0  0  0  0  0  0  0
   -3.0500    1.9870   -2.2420 H   0  0  0  0  0  0  0  0  0  0  0  0
   -4.5320    2.0660   -1.2890 H   0  0  0  0  0  0  0  0  0  0  0  0
    4.3670   -2.4870    0.3380 C   0  0  0  0  0  0  0  0  0  0  0  0
    4.4880   -3.4010    0.9340 H   0  0  0  0  0  0  0  0  0  0  0  0
    5.1120   -1.7680    0.6960 H   0  0  0  0  0  0  0  0  0  0  0  0
    4.6160   -2.7390   -0.6990 H   0  0  0  0  0  0  0  0  0  0  0  0
   -4.4750   -3.5270   -0.4000 C   0  0  0  0  0  0  0  0  0  0  0  0
   -4.9330   -2.7740    0.2440 H   0  0  0  0  0  0  0  0  0  0  0  0
   -5.1030   -4.4230   -0.3530 H   0  0  0  0  0  0  0  0  0  0  0  0
   -4.4420   -3.1980   -1.4410 H   0  0  0  0  0  0  0  0  0  0  0  0
    2.4800    3.4290    1.5610 C   0  0  0  0  0  0  0  0  0  0  0  0
    2.2740    4.3270    0.9710 H   0  0  0  0  0  0  0  0  0  0  0  0
    3.5400    3.1720    1.5130 H   0  0  0  0  0  0  0  0  0  0  0  0
    2.2100    3.6380    2.6000 H   0  0  0  0  0  0  0  0  0  0  0  0
    5.5190    1.6960   -0.4330 C   0  0  0  0  0  0  0  0  0  0  0  0
    5.7340    1.5610    0.6300 H   0  0  0  0  0  0  0  0  0  0  0  0
    4.9650    2.6230   -0.5990 H   0  0  0  0  0  0  0  0  0  0  0  0
    6.4710    1.7510   -0.9690 H   0  0  0  0  0  0  0  0  0  0  0  0
   -2.7740    5.1400    0.1280 C   0  0  0  0  0  0  0  0  0  0  0  0
   -3.0130    5.8460   -0.6730 H   0  0  0  0  0  0  0  0  0  0  0  0
   -1.7490    5.3270    0.4630 H   0  0  0  0  0  0  0  0  0  0  0  0
   -3.4850    5.2890    0.9470 H   0  0  0  0  0  0  0  0  0  0  0  0
   -0.9380    0.8810    0.6750 H   0  0  0  0  0  0  0  0  0  0  0  0
    2.9650   -1.0620   -1.5440 H   0  0  0  0  0  0  0  0  0  0  0  0
    1.4970    1.2700   -2.0630 H   0  0  0  0  0  0  0  0  0  0  0  0
   -3.2890   -1.4150   -0.7870 H   0  0  0  0  0  0  0  0  0  0  0  0
  1  2  2  0  0  0  0
  1  5  1  0  0  0  0
  1  7  1  0  0  0  0
  2  3  1  0  0  0  0
  2 14  1  0  0  0  0
  3  4  1  0  0  0  0
  3  8  1  0  0  0  0
  3 41  1  0  0  0  0
  4  6  1  0  0  0  0
  4  9  1  0  0  0  0
  4 70  1  0  0  0  0
  5 12  1  0  0  0  0
  5 17  1  0  0  0  0
  5 71  1  0  0  0  0
  6 13  1  0  0  0  0
  6 19  1  0  0  0  0
  6 46  1  0  0  0  0
  7  9  1  0  0  0  0
  7 18  1  0  0  0  0
  7 72  1  0  0  0  0
  8 22  1  0  0  0  0
  8 26  1  0  0  0  0
  8 73  1  0  0  0  0
  9 10  1  0  0  0  0
  9 11  1  0  0  0  0
 12 29  1  0  0  0  0
 12 32  1  0  0  0  0
 12 50  1  0  0  0  0
 13 34  2  0  0  0  0
 13 45  1  0  0  0  0
 14 15  1  0  0  0  0
 14 16  1  0  0  0  0
 14 29  1  0  0  0  0
 17 23  1  0  0  0  0
 18 25  1  0  0  0  0
 19 20  1  0  0  0  0
 19 21  1  0  0  0  0
 19 26  1  0  0  0  0
 22 24  1  0  0  0  0
 23 36  2  0  0  0  0
 23 62  1  0  0  0  0
 24 35  2  0  0  0  0
 24 54  1  0  0  0  0
 25 37  2  0  0  0  0
 25 58  1  0  0  0  0
 26 27  1  0  0  0  0
 26 28  1  0  0  0  0
 29 30  1  0  0  0  0
 29 31  1  0  0  0  0
 32 33  1  0  0  0  0
 32 38  2  0  0  0  0
 38 39  1  0  0  0  0
 38 40  1  0  0  0  0
 41 42  1  0  0  0  0
 41 43  1  0  0  0  0
 41 44  1  0  0  0  0
 45 66  1  0  0  0  0
 46 47  1  0  0  0  0
 46 48  1  0  0  0  0
 46 49  1  0  0  0  0
 50 51  1  0  0  0  0
 50 52  1  0  0  0  0
 50 53  1  0  0  0  0
 54 55  1  0  0  0  0
 54 56  1  0  0  0  0
 54 57  1  0  0  0  0
 58 59  1  0  0  0  0
 58 60  1  0  0  0  0
 58 61  1  0  0  0  0
 62 63  1  0  0  0  0
 62 64  1  0  0  0  0
 62 65  1  0  0  0  0
 66 67  1  0  0  0  0
 66 68  1  0  0  0  0
 66 69  1  0  0  0  0
M  END
>  <IDNUMBER>
AO-222/41148830

>  <NAME>
Methyl 1a,7a,14a-triacetoxy-8,15-isopimaredien-18-oate

>  <ADD_INFO>
http://www.specs.net/enter.php?specsid=AO-222/41148830

>  <H_ACCEPTORS>
8

>  <H_DONORS>
0

>  <ROTATABLE_BONDS>
9

>  <LOGP>
5.9499998

>  <LOGS>
-7.8499999

>  <TPSA>
105.2

>  <PRICE>
N07

$$$$
AO-222/41148924
  MOE2011           3D

 53 55  0  0  1  0  0  0  0  0999 V2000
    0.7670   -0.4430    0.4310 C   0  0  2  0  0  0  0  0  0  0  0  0
   -0.6670    0.2820    0.5880 C   0  0  2  0  0  0  0  0  0  0  0  0
   -1.6520   -0.3630   -0.4680 C   0  0  1  0  0  0  0  0  0  0  0  0
    0.6330   -1.9910    0.6500 C   0  0  1  0  0  0  0  0  0  0  0  0
   -0.5140   -2.5770   -0.1800 C   0  0  0  0  0  0  0  0  0  0  0  0
   -1.8410   -1.8540   -0.1700 C   0  0  0  0  0  0  0  0  0  0  0  0
   -2.4640   -2.3250   -0.9370 H   0  0  0  0  0  0  0  0  0  0  0  0
   -2.3230   -2.0370    0.7940 H   0  0  0  0  0  0  0  0  0  0  0  0
    1.8580    0.1580    1.3910 C   0  0  0  0  0  0  0  0  0  0  0  0
    1.3800    0.5550    2.2900 H   0  0  0  0  0  0  0  0  0  0  0  0
    2.4970   -0.6350    1.7890 H   0  0  0  0  0  0  0  0  0  0  0  0
   -3.0000    0.3970   -0.7710 C   0  0  0  0  0  0  0  0  0  0  0  0
    3.9140    0.7710    0.0120 C   0  0  0  0  0  0  0  0  0  0  0  0
    5.8170   -0.2710   -0.6040 O   0  0  0  0  0  0  0  0  0  0  0  0
   -0.4200   -3.6640   -0.7550 O   0  0  0  0  0  0  0  0  0  0  0  0
    4.9660   -0.0230    0.4230 C   0  0  0  0  0  0  0  0  0  0  0  0
    5.2360   -0.4740    1.3680 H   0  0  0  0  0  0  0  0  0  0  0  0
    4.1640    1.0390   -1.3640 C   0  0  0  0  0  0  0  0  0  0  0  0
    3.5630    1.6370   -2.0360 H   0  0  0  0  0  0  0  0  0  0  0  0
    5.3250    0.3790   -1.6880 C   0  0  0  0  0  0  0  0  0  0  0  0
    5.9030    0.2800   -2.5960 H   0  0  0  0  0  0  0  0  0  0  0  0
    1.1890   -0.2460   -0.9280 O   0  0  0  0  0  0  0  0  0  0  0  0
    2.0690   -0.6420   -1.0490 H   0  0  0  0  0  0  0  0  0  0  0  0
    2.7690    1.2680    0.8350 C   0  0  0  0  0  0  0  0  0  0  0  0
    3.1950    1.8150    1.6870 H   0  0  0  0  0  0  0  0  0  0  0  0
    2.1940    2.0040    0.2660 H   0  0  0  0  0  0  0  0  0  0  0  0
   -0.5420    1.7990    0.2800 C   0  0  0  0  0  0  0  0  0  0  0  0
    0.0330    2.3000    1.0670 H   0  0  0  0  0  0  0  0  0  0  0  0
    0.0120    1.9480   -0.6550 H   0  0  0  0  0  0  0  0  0  0  0  0
   -1.1900    0.1280    2.0430 C   0  0  0  0  0  0  0  0  0  0  0  0
   -2.1900    0.5330    2.1750 H   0  0  0  0  0  0  0  0  0  0  0  0
   -0.5720    0.6740    2.7610 H   0  0  0  0  0  0  0  0  0  0  0  0
   -1.2260   -0.9110    2.3770 H   0  0  0  0  0  0  0  0  0  0  0  0
    1.9080   -2.7930    0.3260 C   0  0  0  0  0  0  0  0  0  0  0  0
    2.7830   -2.4490    0.8820 H   0  0  0  0  0  0  0  0  0  0  0  0
    2.1490   -2.7620   -0.7420 H   0  0  0  0  0  0  0  0  0  0  0  0
    1.7680   -3.8490    0.5890 H   0  0  0  0  0  0  0  0  0  0  0  0
   -2.7210    1.9060   -0.9640 C   0  0  0  0  0  0  0  0  0  0  0  0
   -2.1940    2.0620   -1.9160 H   0  0  0  0  0  0  0  0  0  0  0  0
   -3.6650    2.4610   -1.0460 H   0  0  0  0  0  0  0  0  0  0  0  0
   -1.8800    2.5190    0.1450 C   0  0  0  0  0  0  0  0  0  0  0  0
   -2.4240    2.5140    1.0950 H   0  0  0  0  0  0  0  0  0  0  0  0
   -1.6930    3.5730   -0.0920 H   0  0  0  0  0  0  0  0  0  0  0  0
   -3.5890   -0.1190   -2.1130 C   0  0  0  0  0  0  0  0  0  0  0  0
   -4.4480    0.4870   -2.4250 H   0  0  0  0  0  0  0  0  0  0  0  0
   -3.9390   -1.1530   -2.0360 H   0  0  0  0  0  0  0  0  0  0  0  0
   -2.8480   -0.0730   -2.9190 H   0  0  0  0  0  0  0  0  0  0  0  0
   -4.1100    0.2010    0.2810 C   0  0  0  0  0  0  0  0  0  0  0  0
   -5.0610    0.6090   -0.0830 H   0  0  0  0  0  0  0  0  0  0  0  0
   -3.9120    0.7170    1.2200 H   0  0  0  0  0  0  0  0  0  0  0  0
   -4.2850   -0.8560    0.5000 H   0  0  0  0  0  0  0  0  0  0  0  0
   -1.1140   -0.3180   -1.4270 H   0  0  0  0  0  0  0  0  0  0  0  0
    0.3900   -2.1890    1.7010 H   0  0  0  0  0  0  0  0  0  0  0  0
  1  2  1  0  0  0  0
  1  4  1  0  0  0  0
  1  9  1  0  0  0  0
  1 22  1  0  0  0  0
  2  3  1  0  0  0  0
  2 27  1  0  0  0  0
  2 30  1  0  0  0  0
  3  6  1  0  0  0  0
  3 12  1  0  0  0  0
  3 52  1  0  0  0  0
  4  5  1  0  0  0  0
  4 34  1  0  0  0  0
  4 53  1  0  0  0  0
  5  6  1  0  0  0  0
  5 15  2  0  0  0  0
  6  7  1  0  0  0  0
  6  8  1  0  0  0  0
  9 10  1  0  0  0  0
  9 11  1  0  0  0  0
  9 24  1  0  0  0  0
 12 38  1  0  0  0  0
 12 44  1  0  0  0  0
 12 48  1  0  0  0  0
 13 16  2  0  0  0  0
 13 18  1  0  0  0  0
 13 24  1  0  0  0  0
 14 16  1  0  0  0  0
 14 20  1  0  0  0  0
 16 17  1  0  0  0  0
 18 19  1  0  0  0  0
 18 20  2  0  0  0  0
 20 21  1  0  0  0  0
 22 23  1  0  0  0  0
 24 25  1  0  0  0  0
 24 26  1  0  0  0  0
 27 28  1  0  0  0  0
 27 29  1  0  0  0  0
 27 41  1  0  0  0  0
 30 31  1  0  0  0  0
 30 32  1  0  0  0  0
 30 33  1  0  0  0  0
 34 35  1  0  0  0  0
 34 36  1  0  0  0  0
 34 37  1  0  0  0  0
 38 39  1  0  0  0  0
 38 40  1  0  0  0  0
 38 41  1  0  0  0  0
 41 42  1  0  0  0  0
 41 43  1  0  0  0  0
 44 45  1  0  0  0  0
 44 46  1  0  0  0  0
 44 47  1  0  0  0  0
 48 49  1  0  0  0  0
 48 50  1  0  0  0  0
 48 51  1  0  0  0  0
M  END
>  <IDNUMBER>
AO-222/41148924

>  <NAME>
Hispanolone

>  <ADD_INFO>
http://www.specs.net/enter.php?specsid=AO-222/41148924

>  <H_ACCEPTORS>
2

>  <H_DONORS>
1

>  <ROTATABLE_BONDS>
3

>  <LOGP>
4.71

>  <LOGS>
-5.04

>  <TPSA>
50.439999

>  <PRICE>
N07

$$$$
AO-229/41747043
  MOE2011           3D

 31 33  0  0  0  0  0  0  0  0999 V2000
   -0.4290   -0.1280   -0.1940 C   0  0  0  0  0  0  0  0  0  0  0  0
   -0.1530    1.2420   -0.1050 C   0  0  0  0  0  0  0  0  0  0  0  0
    0.7130   -1.0840   -0.2800 C   0  0  0  0  0  0  0  0  0  0  0  0
   -1.7770   -0.5520   -0.2360 C   0  0  0  0  0  0  0  0  0  0  0  0
    1.2350    1.7460   -0.0390 C   0  0  0  0  0  0  0  0  0  0  0  0
   -2.8210    0.3960   -0.2540 C   0  0  0  0  0  0  0  0  0  0  0  0
    2.0990   -0.5750   -0.2040 C   0  0  0  0  0  0  0  0  0  0  0  0
    2.3510    0.7890   -0.0870 C   0  0  0  0  0  0  0  0  0  0  0  0
   -1.1940    2.1780   -0.0800 C   0  0  0  0  0  0  0  0  0  0  0  0
   -0.9790    3.2440   -0.0080 H   0  0  0  0  0  0  0  0  0  0  0  0
   -2.5160    1.7560   -0.1510 C   0  0  0  0  0  0  0  0  0  0  0  0
    0.5460   -2.2890   -0.4200 O   0  0  0  0  0  0  0  0  0  0  0  0
    1.4570    2.9470    0.0560 O   0  0  0  0  0  0  0  0  0  0  0  0
   -4.2370    0.0040   -0.4540 C   0  0  0  0  0  0  0  0  0  0  0  0
   -4.8750    0.7580   -0.9460 H   0  0  0  0  0  0  0  0  0  0  0  0
   -2.0870   -1.8800   -0.3780 O   0  0  0  0  0  0  0  0  0  0  0  0
   -4.7180   -1.0570   -0.0810 O   0  0  0  0  0  0  0  0  0  0  0  0
   -3.4610    2.7420   -0.1100 O   0  0  0  0  0  0  0  0  0  0  0  0
   -4.2170    2.4530    0.4290 H   0  0  0  0  0  0  0  0  0  0  0  0
    3.1720   -1.4750   -0.2530 C   0  0  0  0  0  0  0  0  0  0  0  0
    2.9930   -2.5450   -0.3460 H   0  0  0  0  0  0  0  0  0  0  0  0
    3.6690    1.2580   -0.0190 C   0  0  0  0  0  0  0  0  0  0  0  0
    3.8730    2.3240    0.0710 H   0  0  0  0  0  0  0  0  0  0  0  0
   -2.2060   -2.5140    0.8990 C   0  0  0  0  0  0  0  0  0  0  0  0
   -2.5390   -3.5420    0.7320 H   0  0  0  0  0  0  0  0  0  0  0  0
   -2.9460   -2.0150    1.5340 H   0  0  0  0  0  0  0  0  0  0  0  0
   -1.2440   -2.5470    1.4200 H   0  0  0  0  0  0  0  0  0  0  0  0
    4.4860   -1.0080   -0.1850 C   0  0  0  0  0  0  0  0  0  0  0  0
    5.3150   -1.7100   -0.2250 H   0  0  0  0  0  0  0  0  0  0  0  0
    4.7340    0.3590   -0.0680 C   0  0  0  0  0  0  0  0  0  0  0  0
    5.7570    0.7240   -0.0170 H   0  0  0  0  0  0  0  0  0  0  0  0
  1  2  2  0  0  0  0
  1  3  1  0  0  0  0
  1  4  1  0  0  0  0
  2  5  1  0  0  0  0
  2  9  1  0  0  0  0
  3  7  1  0  0  0  0
  3 12  2  0  0  0  0
  4  6  2  0  0  0  0
  4 16  1  0  0  0  0
  5  8  1  0  0  0  0
  5 13  2  0  0  0  0
  6 11  1  0  0  0  0
  6 14  1  0  0  0  0
  7  8  2  0  0  0  0
  7 20  1  0  0  0  0
  8 22  1  0  0  0  0
  9 10  1  0  0  0  0
  9 11  2  0  0  0  0
 11 18  1  0  0  0  0
 14 15  1  0  0  0  0
 14 17  2  0  0  0  0
 16 24  1  0  0  0  0
 18 19  1  0  0  0  0
 20 21  1  0  0  0  0
 20 28  2  0  0  0  0
 22 23  1  0  0  0  0
 22 30  2  0  0  0  0
 24 25  1  0  0  0  0
 24 26  1  0  0  0  0
 24 27  1  0  0  0  0
 28 29  1  0  0  0  0
 28 30  1  0  0  0  0
 30 31  1  0  0  0  0
M  END
>  <IDNUMBER>
AO-229/41747043

>  <NAME>
3-hydroxy-1-methoxy-9,10-dioxo-9,10-dihydro-2-anthracenecarbaldehyde

>  <ADD_INFO>
http://www.specs.net/enter.php?specsid=AO-229/41747043

>  <H_ACCEPTORS>
3

>  <H_DONORS>
1

>  <ROTATABLE_BONDS>
2

>  <LOGP>
3.4400001

>  <LOGS>
-4.73

>  <TPSA>
80.669998

>  <PRICE>
N08

$$$$
AO-313/21215001
  MOE2011           3D

 69 74  0  0  1  0  0  0  0  0999 V2000
    0.1190    1.3120    0.8500 C   0  0  2  0  0  0  0  0  0  0  0  0
    1.0140    0.0900    1.0560 C   0  0  1  0  0  0  0  0  0  0  0  0
    0.3950   -1.1460    0.4010 C   0  0  0  0  0  0  0  0  0  0  0  0
   -0.6480   -1.0590   -0.5750 C   0  0  0  0  0  0  0  0  0  0  0  0
   -0.3380    1.4220   -0.5920 C   0  0  1  0  0  0  0  0  0  0  0  0
   -1.2890    0.2810   -0.9650 C   0  0  2  0  0  0  0  0  0  0  0  0
    2.3650    0.2640    0.5340 N   0  0  0  0  0  0  0  0  0  0  0  0
    2.5330    0.0070   -0.4310 H   0  0  0  0  0  0  0  0  0  0  0  0
   -2.7250    0.4260   -0.4540 C   0  0  0  0  0  0  0  0  0  0  0  0
   -0.8380    2.8390   -0.6380 C   0  0  0  0  0  0  0  0  0  0  0  0
    3.3900    0.7570    1.3180 C   0  0  0  0  0  0  0  0  0  0  0  0
   -1.1370   -2.2320   -1.1830 C   0  0  0  0  0  0  0  0  0  0  0  0
   -1.9310   -2.1980   -1.9220 H   0  0  0  0  0  0  0  0  0  0  0  0
    0.9150   -2.4080    0.7510 C   0  0  0  0  0  0  0  0  0  0  0  0
    1.7080   -2.5060    1.4860 H   0  0  0  0  0  0  0  0  0  0  0  0
   -5.3920    0.7020    0.3840 C   0  0  0  0  0  0  0  0  0  0  0  0
   -0.2600    3.5470    0.3870 O   0  0  0  0  0  0  0  0  0  0  0  0
    0.6620    2.6980    1.0970 C   0  0  0  0  0  0  0  0  0  0  0  0
    1.6610    2.8760    0.6880 H   0  0  0  0  0  0  0  0  0  0  0  0
    0.6520    2.9610    2.1590 H   0  0  0  0  0  0  0  0  0  0  0  0
   -4.4580    0.0960    1.2390 C   0  0  0  0  0  0  0  0  0  0  0  0
   -5.0080    1.2040   -0.8690 C   0  0  0  0  0  0  0  0  0  0  0  0
   -0.5900   -3.4410   -0.8120 C   0  0  0  0  0  0  0  0  0  0  0  0
    0.4050   -3.5270    0.1290 C   0  0  0  0  0  0  0  0  0  0  0  0
   -3.1330   -0.0400    0.8100 C   0  0  0  0  0  0  0  0  0  0  0  0
   -2.4000   -0.5210    1.4490 H   0  0  0  0  0  0  0  0  0  0  0  0
   -3.6810    1.0460   -1.2810 C   0  0  0  0  0  0  0  0  0  0  0  0
   -3.3590    1.4090   -2.2530 H   0  0  0  0  0  0  0  0  0  0  0  0
    4.7540    0.7560    0.7200 C   0  0  0  0  0  0  0  0  0  0  0  0
    0.8050   -4.8090    0.3480 O   0  0  0  0  0  0  0  0  0  0  0  0
   -0.9460   -4.6570   -1.3050 O   0  0  0  0  0  0  0  0  0  0  0  0
   -0.0550   -5.5180   -0.5680 C   0  0  0  0  0  0  0  0  0  0  0  0
    0.5710   -6.0670   -1.2810 H   0  0  0  0  0  0  0  0  0  0  0  0
   -0.6540   -6.2390    0.0000 H   0  0  0  0  0  0  0  0  0  0  0  0
    3.2160    1.2030    2.4480 O   0  0  0  0  0  0  0  0  0  0  0  0
   -1.5750    3.3190   -1.4830 O   0  0  0  0  0  0  0  0  0  0  0  0
    5.1460   -0.1740   -0.2490 C   0  0  0  0  0  0  0  0  0  0  0  0
    4.4700   -0.9480   -0.6010 H   0  0  0  0  0  0  0  0  0  0  0  0
    5.6830    1.6930    1.1870 C   0  0  0  0  0  0  0  0  0  0  0  0
    5.4020    2.4110    1.9550 H   0  0  0  0  0  0  0  0  0  0  0  0
   -6.6890    0.8740    0.8200 O   0  0  0  0  0  0  0  0  0  0  0  0
   -5.9880    1.8080   -1.6140 O   0  0  0  0  0  0  0  0  0  0  0  0
   -4.9350   -0.3290    2.4530 O   0  0  0  0  0  0  0  0  0  0  0  0
    7.3720    0.7950   -0.3080 C   0  0  0  0  0  0  0  0  0  0  0  0
    6.9810    1.7120    0.6720 C   0  0  0  0  0  0  0  0  0  0  0  0
    7.6960    2.4450    1.0400 H   0  0  0  0  0  0  0  0  0  0  0  0
    6.4500   -0.1500   -0.7640 C   0  0  0  0  0  0  0  0  0  0  0  0
    6.7140   -0.8900   -1.5120 H   0  0  0  0  0  0  0  0  0  0  0  0
    8.6680    0.9220   -0.7280 O   0  0  0  0  0  0  0  0  0  0  0  0
   -7.5020   -0.2110    0.3750 C   0  0  0  0  0  0  0  0  0  0  0  0
   -8.4960   -0.0880    0.8150 H   0  0  0  0  0  0  0  0  0  0  0  0
   -7.1020   -1.1750    0.7090 H   0  0  0  0  0  0  0  0  0  0  0  0
   -7.6110   -0.2030   -0.7140 H   0  0  0  0  0  0  0  0  0  0  0  0
   -4.0140   -0.9390    3.3460 C   0  0  0  0  0  0  0  0  0  0  0  0
   -4.5580   -1.2050    4.2580 H   0  0  0  0  0  0  0  0  0  0  0  0
   -3.2150   -0.2450    3.6260 H   0  0  0  0  0  0  0  0  0  0  0  0
   -3.6060   -1.8630    2.9220 H   0  0  0  0  0  0  0  0  0  0  0  0
   -5.5680    2.5410   -2.7580 C   0  0  0  0  0  0  0  0  0  0  0  0
   -6.4430    3.0590   -3.1620 H   0  0  0  0  0  0  0  0  0  0  0  0
   -5.1930    1.8690   -3.5370 H   0  0  0  0  0  0  0  0  0  0  0  0
   -4.8240    3.3010   -2.4960 H   0  0  0  0  0  0  0  0  0  0  0  0
    9.1150    0.0120   -1.7260 C   0  0  0  0  0  0  0  0  0  0  0  0
   10.1580    0.2500   -1.9530 H   0  0  0  0  0  0  0  0  0  0  0  0
    8.5380    0.1250   -2.6500 H   0  0  0  0  0  0  0  0  0  0  0  0
    9.0800   -1.0200   -1.3610 H   0  0  0  0  0  0  0  0  0  0  0  0
   -0.7610    1.2010    1.4990 H   0  0  0  0  0  0  0  0  0  0  0  0
    1.0870   -0.0920    2.1370 H   0  0  0  0  0  0  0  0  0  0  0  0
    0.5350    1.3910   -1.2610 H   0  0  0  0  0  0  0  0  0  0  0  0
   -1.3420    0.2750   -2.0650 H   0  0  0  0  0  0  0  0  0  0  0  0
  1  2  1  0  0  0  0
  1  5  1  0  0  0  0
  1 18  1  0  0  0  0
  1 66  1  0  0  0  0
  2  3  1  0  0  0  0
  2  7  1  0  0  0  0
  2 67  1  0  0  0  0
  3  4  2  0  0  0  0
  3 14  1  0  0  0  0
  4  6  1  0  0  0  0
  4 12  1  0  0  0  0
  5  6  1  0  0  0  0
  5 10  1  0  0  0  0
  5 68  1  0  0  0  0
  6  9  1  0  0  0  0
  6 69  1  0  0  0  0
  7  8  1  0  0  0  0
  7 11  1  0  0  0  0
  9 25  2  0  0  0  0
  9 27  1  0  0  0  0
 10 17  1  0  0  0  0
 10 36  2  0  0  0  0
 11 29  1  0  0  0  0
 11 35  2  0  0  0  0
 12 13  1  0  0  0  0
 12 23  2  0  0  0  0
 14 15  1  0  0  0  0
 14 24  2  0  0  0  0
 16 21  2  0  0  0  0
 16 22  1  0  0  0  0
 16 41  1  0  0  0  0
 17 18  1  0  0  0  0
 18 19  1  0  0  0  0
 18 20  1  0  0  0  0
 21 25  1  0  0  0  0
 21 43  1  0  0  0  0
 22 27  2  0  0  0  0
 22 42  1  0  0  0  0
 23 24  1  0  0  0  0
 23 31  1  0  0  0  0
 24 30  1  0  0  0  0
 25 26  1  0  0  0  0
 27 28  1  0  0  0  0
 29 37  2  0  0  0  0
 29 39  1  0  0  0  0
 30 32  1  0  0  0  0
 31 32  1  0  0  0  0
 32 33  1  0  0  0  0
 32 34  1  0  0  0  0
 37 38  1  0  0  0  0
 37 47  1  0  0  0  0
 39 40  1  0  0  0  0
 39 45  2  0  0  0  0
 41 50  1  0  0  0  0
 42 58  1  0  0  0  0
 43 54  1  0  0  0  0
 44 45  1  0  0  0  0
 44 47  2  0  0  0  0
 44 49  1  0  0  0  0
 45 46  1  0  0  0  0
 47 48  1  0  0  0  0
 49 62  1  0  0  0  0
 50 51  1  0  0  0  0
 50 52  1  0  0  0  0
 50 53  1  0  0  0  0
 54 55  1  0  0  0  0
 54 56  1  0  0  0  0
 54 57  1  0  0  0  0
 58 59  1  0  0  0  0
 58 60  1  0  0  0  0
 58 61  1  0  0  0  0
 62 63  1  0  0  0  0
 62 64  1  0  0  0  0
 62 65  1  0  0  0  0
M  END
>  <IDNUMBER>
AO-313/21215001

>  <NAME>
4-methoxy-N-[8-oxo-9-(3,4,5-trimethoxyphenyl)-5,5a,6,8,8a,9-hexahydrofuro[3',4':6,7]naphtho[2,3-d][1,3]dioxol-5-yl]benzamide

>  <ADD_INFO>
http://www.specs.net/enter.php?specsid=AO-313/21215001

>  <H_ACCEPTORS>
4

>  <H_DONORS>
1

>  <ROTATABLE_BONDS>
8

>  <LOGP>
2.6600001

>  <LOGS>
-5.46

>  <TPSA>
110.78

>  <PRICE>
N05

$$$$
AO-313/21215011
  MOE2011           3D

 53 57  0  0  1  0  0  0  0  0999 V2000
   -1.4520   -2.2260    0.6490 C   0  0  1  0  0  0  0  0  0  0  0  0
   -1.5610    0.2340   -0.8050 C   0  0  0  0  0  0  0  0  0  0  0  0
   -0.8660   -2.1700   -0.7480 C   0  0  1  0  0  0  0  0  0  0  0  0
   -0.4200   -0.7500   -1.1050 C   0  0  2  0  0  0  0  0  0  0  0  0
   -2.6360   -0.0920    0.0840 C   0  0  0  0  0  0  0  0  0  0  0  0
   -2.7840   -1.4790    0.7130 C   0  0  1  0  0  0  0  0  0  0  0  0
    0.9160   -0.3120   -0.4950 C   0  0  0  0  0  0  0  0  0  0  0  0
   -4.9550   -2.2500    0.4950 N   0  3  0  0  0  0  0  0  0  0  0  0
    0.1470   -3.2780   -0.6910 C   0  0  0  0  0  0  0  0  0  0  0  0
   -1.5060    1.5110   -1.3990 C   0  0  0  0  0  0  0  0  0  0  0  0
   -0.7020    1.7880   -2.0740 H   0  0  0  0  0  0  0  0  0  0  0  0
   -3.6180    0.8760    0.3680 C   0  0  0  0  0  0  0  0  0  0  0  0
   -4.4450    0.6690    1.0390 H   0  0  0  0  0  0  0  0  0  0  0  0
    3.4030    0.5030    0.5230 C   0  0  0  0  0  0  0  0  0  0  0  0
   -0.1990   -4.1440    0.3180 O   0  0  0  0  0  0  0  0  0  0  0  0
   -1.4280   -3.7100    0.9250 C   0  0  0  0  0  0  0  0  0  0  0  0
   -2.2510   -4.2710    0.4700 H   0  0  0  0  0  0  0  0  0  0  0  0
   -1.3980   -3.9260    1.9970 H   0  0  0  0  0  0  0  0  0  0  0  0
    3.3440   -0.1250   -0.7300 C   0  0  0  0  0  0  0  0  0  0  0  0
    2.2440    0.6990    1.2910 C   0  0  0  0  0  0  0  0  0  0  0  0
   -6.0000   -2.2380    0.9510 N   0  5  0  0  0  0  0  0  0  0  0  0
   -3.5180    2.1140   -0.2330 C   0  0  0  0  0  0  0  0  0  0  0  0
   -2.4940    2.4200   -1.0930 C   0  0  0  0  0  0  0  0  0  0  0  0
   -3.8120   -2.2640    0.0040 N   0  0  0  0  0  0  0  0  0  0  0  0
    2.0970   -0.5120   -1.2330 C   0  0  0  0  0  0  0  0  0  0  0  0
    2.0180   -0.9860   -2.2080 H   0  0  0  0  0  0  0  0  0  0  0  0
    1.0100    0.2930    0.7710 C   0  0  0  0  0  0  0  0  0  0  0  0
    0.1000    0.4550    1.3400 H   0  0  0  0  0  0  0  0  0  0  0  0
   -4.3810    3.1520   -0.0630 O   0  0  0  0  0  0  0  0  0  0  0  0
   -2.5800    3.6890   -1.5750 O   0  0  0  0  0  0  0  0  0  0  0  0
   -3.7770    4.1470   -0.9160 C   0  0  0  0  0  0  0  0  0  0  0  0
   -4.5060    4.4430   -1.6790 H   0  0  0  0  0  0  0  0  0  0  0  0
   -3.5290    5.0250   -0.3080 H   0  0  0  0  0  0  0  0  0  0  0  0
    1.0860   -3.4410   -1.4510 O   0  0  0  0  0  0  0  0  0  0  0  0
    4.6270    0.8610    1.0470 O   0  0  0  0  0  0  0  0  0  0  0  0
    2.4200    1.2940    2.5150 O   0  0  0  0  0  0  0  0  0  0  0  0
    4.5360   -0.2980   -1.3850 O   0  0  0  0  0  0  0  0  0  0  0  0
    4.9660    2.1850    0.6370 C   0  0  0  0  0  0  0  0  0  0  0  0
    5.9300    2.4390    1.0870 H   0  0  0  0  0  0  0  0  0  0  0  0
    4.2260    2.9130    0.9900 H   0  0  0  0  0  0  0  0  0  0  0  0
    5.0730    2.2520   -0.4510 H   0  0  0  0  0  0  0  0  0  0  0  0
    4.5220   -1.1360   -2.5350 C   0  0  0  0  0  0  0  0  0  0  0  0
    5.5570   -1.2670   -2.8640 H   0  0  0  0  0  0  0  0  0  0  0  0
    3.9720   -0.6640   -3.3560 H   0  0  0  0  0  0  0  0  0  0  0  0
    4.1190   -2.1270   -2.3030 H   0  0  0  0  0  0  0  0  0  0  0  0
    1.2700    1.4710    3.3310 C   0  0  0  0  0  0  0  0  0  0  0  0
    1.5940    1.9320    4.2690 H   0  0  0  0  0  0  0  0  0  0  0  0
    0.8060    0.5100    3.5760 H   0  0  0  0  0  0  0  0  0  0  0  0
    0.5520    2.1500    2.8590 H   0  0  0  0  0  0  0  0  0  0  0  0
   -0.7560   -1.7600    1.3590 H   0  0  0  0  0  0  0  0  0  0  0  0
   -1.6180   -2.4970   -1.4830 H   0  0  0  0  0  0  0  0  0  0  0  0
   -0.2920   -0.7330   -2.1980 H   0  0  0  0  0  0  0  0  0  0  0  0
   -3.0510   -1.3660    1.7730 H   0  0  0  0  0  0  0  0  0  0  0  0
  1  3  1  0  0  0  0
  1  6  1  0  0  0  0
  1 16  1  0  0  0  0
  1 50  1  0  0  0  0
  2  4  1  0  0  0  0
  2  5  2  0  0  0  0
  2 10  1  0  0  0  0
  3  4  1  0  0  0  0
  3  9  1  0  0  0  0
  3 51  1  0  0  0  0
  4  7  1  0  0  0  0
  4 52  1  0  0  0  0
  5  6  1  0  0  0  0
  5 12  1  0  0  0  0
  6 24  1  0  0  0  0
  6 53  1  0  0  0  0
  7 25  2  0  0  0  0
  7 27  1  0  0  0  0
  8 21  2  0  0  0  0
  8 24  2  0  0  0  0
  9 15  1  0  0  0  0
  9 34  2  0  0  0  0
 10 11  1  0  0  0  0
 10 23  2  0  0  0  0
 12 13  1  0  0  0  0
 12 22  2  0  0  0  0
 14 19  2  0  0  0  0
 14 20  1  0  0  0  0
 14 35  1  0  0  0  0
 15 16  1  0  0  0  0
 16 17  1  0  0  0  0
 16 18  1  0  0  0  0
 19 25  1  0  0  0  0
 19 37  1  0  0  0  0
 20 27  2  0  0  0  0
 20 36  1  0  0  0  0
 22 23  1  0  0  0  0
 22 29  1  0  0  0  0
 23 30  1  0  0  0  0
 25 26  1  0  0  0  0
 27 28  1  0  0  0  0
 29 31  1  0  0  0  0
 30 31  1  0  0  0  0
 31 32  1  0  0  0  0
 31 33  1  0  0  0  0
 35 38  1  0  0  0  0
 36 46  1  0  0  0  0
 37 42  1  0  0  0  0
 38 39  1  0  0  0  0
 38 40  1  0  0  0  0
 38 41  1  0  0  0  0
 42 43  1  0  0  0  0
 42 44  1  0  0  0  0
 42 45  1  0  0  0  0
 46 47  1  0  0  0  0
 46 48  1  0  0  0  0
 46 49  1  0  0  0  0
M  CHG  1   8   1
M  CHG  1  21  -1
M  END
>  <IDNUMBER>
AO-313/21215011

>  <NAME>
Podophyllotoxin, derivative of

>  <ADD_INFO>
http://www.specs.net/enter.php?specsid=AO-313/21215011

>  <H_ACCEPTORS>
4

>  <H_DONORS>
0

>  <ROTATABLE_BONDS>
5

>  <LOGP>
3.0799999

>  <LOGS>
-5.4699998

>  <TPSA>
84.809998

>  <PRICE>
N05

$$$$
AO-313/21215013
  MOE2011           3D

 58 62  0  0  1  0  0  0  0  0999 V2000
    1.3620   -1.7840   -0.1020 C   0  0  1  0  0  0  0  0  0  0  0  0
    1.0280    0.8320    1.0300 C   0  0  0  0  0  0  0  0  0  0  0  0
    2.1670    0.5790    0.2000 C   0  0  0  0  0  0  0  0  0  0  0  0
    0.7270   -1.6370    1.2680 C   0  0  1  0  0  0  0  0  0  0  0  0
    0.0420   -0.2770    1.4260 C   0  0  2  0  0  0  0  0  0  0  0  0
    2.5400   -0.8250   -0.2770 C   0  0  1  0  0  0  0  0  0  0  0  0
   -1.3110   -0.1400    0.7260 C   0  0  0  0  0  0  0  0  0  0  0  0
   -0.0940   -2.8930    1.3490 C   0  0  0  0  0  0  0  0  0  0  0  0
    0.7620    2.1430    1.4750 C   0  0  0  0  0  0  0  0  0  0  0  0
   -0.0970    2.3650    2.0990 H   0  0  0  0  0  0  0  0  0  0  0  0
    3.0050    1.6500   -0.1700 C   0  0  0  0  0  0  0  0  0  0  0  0
    3.8790    1.4970   -0.7940 H   0  0  0  0  0  0  0  0  0  0  0  0
   -3.8410    0.1120   -0.4890 C   0  0  0  0  0  0  0  0  0  0  0  0
    0.4320   -3.8230    0.4860 O   0  0  0  0  0  0  0  0  0  0  0  0
    3.7250   -1.2680    0.4540 N   0  0  0  0  0  0  0  0  0  0  0  0
    3.6690   -1.2930    1.4670 H   0  0  0  0  0  0  0  0  0  0  0  0
    1.5940   -3.2740   -0.1640 C   0  0  0  0  0  0  0  0  0  0  0  0
    2.4810   -3.6190    0.3760 H   0  0  0  0  0  0  0  0  0  0  0  0
    1.6310   -3.6410   -1.1940 H   0  0  0  0  0  0  0  0  0  0  0  0
   -2.6860    0.3710   -1.2400 C   0  0  0  0  0  0  0  0  0  0  0  0
   -3.7330   -0.3030    0.8400 C   0  0  0  0  0  0  0  0  0  0  0  0
    2.7020    2.9140    0.2870 C   0  0  0  0  0  0  0  0  0  0  0  0
    1.6140    3.1530    1.0880 C   0  0  0  0  0  0  0  0  0  0  0  0
   -1.4330    0.2480   -0.6230 C   0  0  0  0  0  0  0  0  0  0  0  0
   -0.5310    0.4670   -1.1840 H   0  0  0  0  0  0  0  0  0  0  0  0
   -2.4830   -0.4050    1.4510 C   0  0  0  0  0  0  0  0  0  0  0  0
   -2.4300   -0.7110    2.4940 H   0  0  0  0  0  0  0  0  0  0  0  0
    4.9470   -1.6560   -0.0190 C   0  0  0  0  0  0  0  0  0  0  0  0
    1.4950    4.4650    1.4260 O   0  0  0  0  0  0  0  0  0  0  0  0
    3.4100    4.0460    0.0210 O   0  0  0  0  0  0  0  0  0  0  0  0
    2.6370    5.0230    0.7470 C   0  0  0  0  0  0  0  0  0  0  0  0
    3.2860    5.5020    1.4880 H   0  0  0  0  0  0  0  0  0  0  0  0
    2.2870    5.7860    0.0420 H   0  0  0  0  0  0  0  0  0  0  0  0
   -1.0310   -3.1000    2.1020 O   0  0  0  0  0  0  0  0  0  0  0  0
    5.8030   -2.0330    0.7830 O   0  0  0  0  0  0  0  0  0  0  0  0
   -5.0790    0.1880   -1.0820 O   0  0  0  0  0  0  0  0  0  0  0  0
   -4.8470   -0.5630    1.5960 O   0  0  0  0  0  0  0  0  0  0  0  0
   -2.8810    0.7400   -2.5460 O   0  0  0  0  0  0  0  0  0  0  0  0
    4.5340   -3.0250   -2.2830 Cl  0  0  0  0  0  0  0  0  0  0  0  0
    5.2350   -1.6010   -1.5010 C   0  0  0  0  0  0  0  0  0  0  0  0
    6.3170   -1.6180   -1.6590 H   0  0  0  0  0  0  0  0  0  0  0  0
    4.8370   -0.6920   -1.9570 H   0  0  0  0  0  0  0  0  0  0  0  0
   -5.6430    1.4820   -0.8720 C   0  0  0  0  0  0  0  0  0  0  0  0
   -6.6140    1.5090   -1.3750 H   0  0  0  0  0  0  0  0  0  0  0  0
   -5.0130    2.2650   -1.3070 H   0  0  0  0  0  0  0  0  0  0  0  0
   -5.8090    1.6770    0.1930 H   0  0  0  0  0  0  0  0  0  0  0  0
   -1.7270    0.9880   -3.3390 C   0  0  0  0  0  0  0  0  0  0  0  0
   -2.0650    1.2500   -4.3460 H   0  0  0  0  0  0  0  0  0  0  0  0
   -1.1030    0.0930   -3.4200 H   0  0  0  0  0  0  0  0  0  0  0  0
   -1.1570    1.8370   -2.9490 H   0  0  0  0  0  0  0  0  0  0  0  0
   -5.2290   -1.9290    1.4310 C   0  0  0  0  0  0  0  0  0  0  0  0
   -6.0990   -2.1120    2.0700 H   0  0  0  0  0  0  0  0  0  0  0  0
   -4.4290   -2.6070    1.7480 H   0  0  0  0  0  0  0  0  0  0  0  0
   -5.5200   -2.1400    0.3970 H   0  0  0  0  0  0  0  0  0  0  0  0
    0.6150   -1.5520   -0.8730 H   0  0  0  0  0  0  0  0  0  0  0  0
    1.4950   -1.7370    2.0500 H   0  0  0  0  0  0  0  0  0  0  0  0
   -0.1390   -0.1470    2.5040 H   0  0  0  0  0  0  0  0  0  0  0  0
    2.7650   -0.7730   -1.3460 H   0  0  0  0  0  0  0  0  0  0  0  0
  1  4  1  0  0  0  0
  1  6  1  0  0  0  0
  1 17  1  0  0  0  0
  1 55  1  0  0  0  0
  2  3  2  0  0  0  0
  2  5  1  0  0  0  0
  2  9  1  0  0  0  0
  3  6  1  0  0  0  0
  3 11  1  0  0  0  0
  4  5  1  0  0  0  0
  4  8  1  0  0  0  0
  4 56  1  0  0  0  0
  5  7  1  0  0  0  0
  5 57  1  0  0  0  0
  6 15  1  0  0  0  0
  6 58  1  0  0  0  0
  7 24  2  0  0  0  0
  7 26  1  0  0  0  0
  8 14  1  0  0  0  0
  8 34  2  0  0  0  0
  9 10  1  0  0  0  0
  9 23  2  0  0  0  0
 11 12  1  0  0  0  0
 11 22  2  0  0  0  0
 13 20  2  0  0  0  0
 13 21  1  0  0  0  0
 13 36  1  0  0  0  0
 14 17  1  0  0  0  0
 15 16  1  0  0  0  0
 15 28  1  0  0  0  0
 17 18  1  0  0  0  0
 17 19  1  0  0  0  0
 20 24  1  0  0  0  0
 20 38  1  0  0  0  0
 21 26  2  0  0  0  0
 21 37  1  0  0  0  0
 22 23  1  0  0  0  0
 22 30  1  0  0  0  0
 23 29  1  0  0  0  0
 24 25  1  0  0  0  0
 26 27  1  0  0  0  0
 28 35  2  0  0  0  0
 28 40  1  0  0  0  0
 29 31  1  0  0  0  0
 30 31  1  0  0  0  0
 31 32  1  0  0  0  0
 31 33  1  0  0  0  0
 36 43  1  0  0  0  0
 37 51  1  0  0  0  0
 38 47  1  0  0  0  0
 39 40  1  0  0  0  0
 40 41  1  0  0  0  0
 40 42  1  0  0  0  0
 43 44  1  0  0  0  0
 43 45  1  0  0  0  0
 43 46  1  0  0  0  0
 47 48  1  0  0  0  0
 47 49  1  0  0  0  0
 47 50  1  0  0  0  0
 51 52  1  0  0  0  0
 51 53  1  0  0  0  0
 51 54  1  0  0  0  0
M  END
>  <IDNUMBER>
AO-313/21215013

>  <NAME>
2-chloro-N-[8-oxo-9-(3,4,5-trimethoxyphenyl)-5,5a,6,8,8a,9-hexahydrofuro[3',4':6,7]naphtho[2,3-d][1,3]dioxol-5-yl]acetamide

>  <ADD_INFO>
http://www.specs.net/enter.php?specsid=AO-313/21215013

>  <H_ACCEPTORS>
4

>  <H_DONORS>
1

>  <ROTATABLE_BONDS>
7

>  <LOGP>
1.26

>  <LOGS>
-3.8499999

>  <TPSA>
101.55

>  <PRICE>
N05

$$$$
AO-313/21215014
  MOE2011           3D

 67 72  0  0  1  0  0  0  0  0999 V2000
    0.4240   -1.3430   -0.6110 C   0  0  2  0  0  0  0  0  0  0  0  0
    1.2060   -0.0690   -0.9390 C   0  0  1  0  0  0  0  0  0  0  0  0
    0.6560    1.1620   -0.2180 C   0  0  0  0  0  0  0  0  0  0  0  0
   -0.4050    1.0770    0.7400 C   0  0  0  0  0  0  0  0  0  0  0  0
   -0.0750   -1.3840    0.8190 C   0  0  1  0  0  0  0  0  0  0  0  0
   -1.0710   -0.2590    1.1010 C   0  0  2  0  0  0  0  0  0  0  0  0
    9.0610   -0.8500   -0.2410 N   0  3  0  0  0  0  0  0  0  0  0  0
    2.6570   -0.1900   -0.8480 N   0  0  0  0  0  0  0  0  0  0  0  0
    3.1570   -0.1530   -1.7280 H   0  0  0  0  0  0  0  0  0  0  0  0
   -2.4630   -0.4290    0.4850 C   0  0  0  0  0  0  0  0  0  0  0  0
   -0.5060   -2.8190    0.9280 C   0  0  0  0  0  0  0  0  0  0  0  0
    3.3800   -0.3200    0.3190 C   0  0  0  0  0  0  0  0  0  0  0  0
    1.2080    2.4220   -0.5270 C   0  0  0  0  0  0  0  0  0  0  0  0
    2.0130    2.5250   -1.2470 H   0  0  0  0  0  0  0  0  0  0  0  0
   -0.8810    2.2460    1.3670 C   0  0  0  0  0  0  0  0  0  0  0  0
   -1.6860    2.2100    2.0940 H   0  0  0  0  0  0  0  0  0  0  0  0
   -5.0580   -0.7620   -0.5440 C   0  0  0  0  0  0  0  0  0  0  0  0
    0.1980   -3.5590    0.0060 O   0  0  0  0  0  0  0  0  0  0  0  0
    1.0830   -2.6940   -0.7310 C   0  0  0  0  0  0  0  0  0  0  0  0
    2.0760   -2.7610   -0.2760 H   0  0  0  0  0  0  0  0  0  0  0  0
    1.1390   -3.0340   -1.7690 H   0  0  0  0  0  0  0  0  0  0  0  0
   -4.0910   -0.0910   -1.3100 C   0  0  0  0  0  0  0  0  0  0  0  0
   -4.7420   -1.2960    0.7140 C   0  0  0  0  0  0  0  0  0  0  0  0
    0.7130    3.5360    0.1170 C   0  0  0  0  0  0  0  0  0  0  0  0
   -0.3010    3.4500    1.0370 C   0  0  0  0  0  0  0  0  0  0  0  0
   -2.8010    0.0700   -0.7870 C   0  0  0  0  0  0  0  0  0  0  0  0
   -2.0440    0.5920   -1.3610 H   0  0  0  0  0  0  0  0  0  0  0  0
   -3.4520   -1.1080    1.2220 C   0  0  0  0  0  0  0  0  0  0  0  0
   -3.1840   -1.4930    2.2030 H   0  0  0  0  0  0  0  0  0  0  0  0
    7.6100   -0.7190   -0.1050 C   0  0  0  0  0  0  0  0  0  0  0  0
    9.7660   -0.4160    0.6800 O   0  5  0  0  0  0  0  0  0  0  0  0
    4.8470   -0.4700    0.1460 C   0  0  0  0  0  0  0  0  0  0  0  0
   -0.6400    4.6630    1.5510 O   0  0  0  0  0  0  0  0  0  0  0  0
    1.1450    4.8140   -0.0640 O   0  0  0  0  0  0  0  0  0  0  0  0
    9.4970   -1.3870   -1.2690 O   0  0  0  0  0  0  0  0  0  0  0  0
    0.2880    5.5200    0.8570 C   0  0  0  0  0  0  0  0  0  0  0  0
    0.9150    6.0300    1.5980 H   0  0  0  0  0  0  0  0  0  0  0  0
   -0.2800    6.2730    0.3000 H   0  0  0  0  0  0  0  0  0  0  0  0
    2.9110   -0.2980    1.4490 O   0  0  0  0  0  0  0  0  0  0  0  0
   -1.2900   -3.2860    1.7370 O   0  0  0  0  0  0  0  0  0  0  0  0
    7.0780   -0.0080    0.9770 C   0  0  0  0  0  0  0  0  0  0  0  0
    7.7180    0.4530    1.7260 H   0  0  0  0  0  0  0  0  0  0  0  0
    6.7730   -1.3150   -1.0560 C   0  0  0  0  0  0  0  0  0  0  0  0
    7.1770   -1.8830   -1.8930 H   0  0  0  0  0  0  0  0  0  0  0  0
    5.6920    0.1090    1.1020 C   0  0  0  0  0  0  0  0  0  0  0  0
    5.2720    0.6580    1.9440 H   0  0  0  0  0  0  0  0  0  0  0  0
    5.3890   -1.1940   -0.9250 C   0  0  0  0  0  0  0  0  0  0  0  0
    4.7520   -1.6940   -1.6510 H   0  0  0  0  0  0  0  0  0  0  0  0
   -6.3170   -0.9620   -1.0700 O   0  0  0  0  0  0  0  0  0  0  0  0
   -4.5010    0.3630   -2.5370 O   0  0  0  0  0  0  0  0  0  0  0  0
   -5.7480   -1.9620    1.3670 O   0  0  0  0  0  0  0  0  0  0  0  0
   -7.1840    0.1000   -0.6740 C   0  0  0  0  0  0  0  0  0  0  0  0
   -8.1650   -0.0850   -1.1210 H   0  0  0  0  0  0  0  0  0  0  0  0
   -6.8230    1.0670   -1.0400 H   0  0  0  0  0  0  0  0  0  0  0  0
   -7.3090    0.1300    0.4140 H   0  0  0  0  0  0  0  0  0  0  0  0
   -5.3830   -2.6930    2.5310 C   0  0  0  0  0  0  0  0  0  0  0  0
   -6.2640   -3.2500    2.8640 H   0  0  0  0  0  0  0  0  0  0  0  0
   -5.0920   -2.0190    3.3430 H   0  0  0  0  0  0  0  0  0  0  0  0
   -4.5930   -3.4210    2.3150 H   0  0  0  0  0  0  0  0  0  0  0  0
   -3.5650    1.0990   -3.3140 C   0  0  0  0  0  0  0  0  0  0  0  0
   -4.0630    1.3980   -4.2420 H   0  0  0  0  0  0  0  0  0  0  0  0
   -2.7040    0.4790   -3.5850 H   0  0  0  0  0  0  0  0  0  0  0  0
   -3.2510    2.0110   -2.7970 H   0  0  0  0  0  0  0  0  0  0  0  0
   -0.4520   -1.3660   -1.2760 H   0  0  0  0  0  0  0  0  0  0  0  0
    1.0330    0.1150   -2.0090 H   0  0  0  0  0  0  0  0  0  0  0  0
    0.7610   -1.2900    1.5220 H   0  0  0  0  0  0  0  0  0  0  0  0
   -1.2110   -0.2390    2.1930 H   0  0  0  0  0  0  0  0  0  0  0  0
  1  2  1  0  0  0  0
  1  5  1  0  0  0  0
  1 19  1  0  0  0  0
  1 64  1  0  0  0  0
  2  3  1  0  0  0  0
  2  8  1  0  0  0  0
  2 65  1  0  0  0  0
  3  4  2  0  0  0  0
  3 13  1  0  0  0  0
  4  6  1  0  0  0  0
  4 15  1  0  0  0  0
  5  6  1  0  0  0  0
  5 11  1  0  0  0  0
  5 66  1  0  0  0  0
  6 10  1  0  0  0  0
  6 67  1  0  0  0  0
  7 30  1  0  0  0  0
  7 31  1  0  0  0  0
  7 35  2  0  0  0  0
  8  9  1  0  0  0  0
  8 12  1  0  0  0  0
 10 26  2  0  0  0  0
 10 28  1  0  0  0  0
 11 18  1  0  0  0  0
 11 40  2  0  0  0  0
 12 32  1  0  0  0  0
 12 39  2  0  0  0  0
 13 14  1  0  0  0  0
 13 24  2  0  0  0  0
 15 16  1  0  0  0  0
 15 25  2  0  0  0  0
 17 22  2  0  0  0  0
 17 23  1  0  0  0  0
 17 49  1  0  0  0  0
 18 19  1  0  0  0  0
 19 20  1  0  0  0  0
 19 21  1  0  0  0  0
 22 26  1  0  0  0  0
 22 50  1  0  0  0  0
 23 28  2  0  0  0  0
 23 51  1  0  0  0  0
 24 25  1  0  0  0  0
 24 34  1  0  0  0  0
 25 33  1  0  0  0  0
 26 27  1  0  0  0  0
 28 29  1  0  0  0  0
 30 41  1  0  0  0  0
 30 43  2  0  0  0  0
 32 45  1  0  0  0  0
 32 47  2  0  0  0  0
 33 36  1  0  0  0  0
 34 36  1  0  0  0  0
 36 37  1  0  0  0  0
 36 38  1  0  0  0  0
 41 42  1  0  0  0  0
 41 45  2  0  0  0  0
 43 44  1  0  0  0  0
 43 47  1  0  0  0  0
 45 46  1  0  0  0  0
 47 48  1  0  0  0  0
 49 52  1  0  0  0  0
 50 60  1  0  0  0  0
 51 56  1  0  0  0  0
 52 53  1  0  0  0  0
 52 54  1  0  0  0  0
 52 55  1  0  0  0  0
 56 57  1  0  0  0  0
 56 58  1  0  0  0  0
 56 59  1  0  0  0  0
 60 61  1  0  0  0  0
 60 62  1  0  0  0  0
 60 63  1  0  0  0  0
M  CHG  1   7   1
M  CHG  1  31  -1
M  END
>  <IDNUMBER>
AO-313/21215014

>  <NAME>
4-nitro-N-[8-oxo-9-(3,4,5-trimethoxyphenyl)-5,5a,6,8,8a,9-hexahydrofuro[3',4':6,7]naphtho[2,3-d][1,3]dioxol-5-yl]benzamide

>  <ADD_INFO>
http://www.specs.net/enter.php?specsid=AO-313/21215014

>  <H_ACCEPTORS>
4

>  <H_DONORS>
1

>  <ROTATABLE_BONDS>
8

>  <LOGP>
2.4000001

>  <LOGS>
-5.7399998

>  <TPSA>
144.69

>  <PRICE>
N05

$$$$
AO-313/21215015
  MOE2011           3D

 67 72  0  0  1  0  0  0  0  0999 V2000
   -0.4430   -0.9490    0.9760 C   0  0  2  0  0  0  0  0  0  0  0  0
   -1.2830    0.3240    1.0880 C   0  0  1  0  0  0  0  0  0  0  0  0
   -0.6680    1.4440    0.2480 C   0  0  0  0  0  0  0  0  0  0  0  0
    0.2900    1.1920   -0.7840 C   0  0  0  0  0  0  0  0  0  0  0  0
   -0.1130   -1.2600   -0.4720 C   0  0  1  0  0  0  0  0  0  0  0  0
    0.8370   -0.2150   -1.0620 C   0  0  2  0  0  0  0  0  0  0  0  0
   -6.8730   -1.1240   -2.1800 N   0  3  0  0  0  0  0  0  0  0  0  0
   -2.6690    0.1400    0.6740 N   0  0  0  0  0  0  0  0  0  0  0  0
   -2.9010    0.3740   -0.2820 H   0  0  0  0  0  0  0  0  0  0  0  0
    2.3070   -0.3610   -0.6570 C   0  0  0  0  0  0  0  0  0  0  0  0
    0.3390   -2.6900   -0.3740 C   0  0  0  0  0  0  0  0  0  0  0  0
   -3.6400   -0.2990    1.5530 C   0  0  0  0  0  0  0  0  0  0  0  0
   -1.1010    2.7640    0.4850 C   0  0  0  0  0  0  0  0  0  0  0  0
   -1.8340    2.9860    1.2540 H   0  0  0  0  0  0  0  0  0  0  0  0
    0.7970    2.2630   -1.5470 C   0  0  0  0  0  0  0  0  0  0  0  0
    1.5390    2.1060   -2.3250 H   0  0  0  0  0  0  0  0  0  0  0  0
    5.0210   -0.6500   -0.0100 C   0  0  0  0  0  0  0  0  0  0  0  0
   -0.1610   -3.2380    0.7820 O   0  0  0  0  0  0  0  0  0  0  0  0
   -0.9970   -2.2710    1.4450 C   0  0  0  0  0  0  0  0  0  0  0  0
   -2.0290   -2.4680    1.1430 H   0  0  0  0  0  0  0  0  0  0  0  0
   -0.9060   -2.3960    2.5280 H   0  0  0  0  0  0  0  0  0  0  0  0
    4.1930    0.1190    0.8220 C   0  0  0  0  0  0  0  0  0  0  0  0
    4.5220   -1.2580   -1.1720 C   0  0  0  0  0  0  0  0  0  0  0  0
   -0.5770    3.7780   -0.2870 C   0  0  0  0  0  0  0  0  0  0  0  0
    0.3470    3.5350   -1.2720 C   0  0  0  0  0  0  0  0  0  0  0  0
   -6.6020   -0.8290   -0.7700 C   0  0  0  0  0  0  0  0  0  0  0  0
    3.1680   -1.1070   -1.4830 C   0  0  0  0  0  0  0  0  0  0  0  0
    2.7510   -1.5670   -2.3750 H   0  0  0  0  0  0  0  0  0  0  0  0
    2.8390    0.2440    0.4970 C   0  0  0  0  0  0  0  0  0  0  0  0
    2.1810    0.8300    1.1300 H   0  0  0  0  0  0  0  0  0  0  0  0
   -5.0200   -0.4320    1.0150 C   0  0  0  0  0  0  0  0  0  0  0  0
   -5.2740   -0.7210   -0.3310 C   0  0  0  0  0  0  0  0  0  0  0  0
   -4.4560   -0.8850   -1.0270 H   0  0  0  0  0  0  0  0  0  0  0  0
   -5.9020   -1.3520   -2.9150 O   0  5  0  0  0  0  0  0  0  0  0  0
   -0.8890    5.0990   -0.1850 O   0  0  0  0  0  0  0  0  0  0  0  0
    0.7450    4.6690   -1.9070 O   0  0  0  0  0  0  0  0  0  0  0  0
   -8.0540   -1.1250   -2.5540 O   0  0  0  0  0  0  0  0  0  0  0  0
   -0.0350    5.6560   -1.2050 C   0  0  0  0  0  0  0  0  0  0  0  0
   -0.6600    6.1890   -1.9310 H   0  0  0  0  0  0  0  0  0  0  0  0
    0.6470    6.3750   -0.7370 H   0  0  0  0  0  0  0  0  0  0  0  0
   -3.4170   -0.5590    2.7300 O   0  0  0  0  0  0  0  0  0  0  0  0
    0.9900   -3.3020   -1.2050 O   0  0  0  0  0  0  0  0  0  0  0  0
    6.3640   -0.7540    0.2830 O   0  0  0  0  0  0  0  0  0  0  0  0
    5.4250   -1.9610   -1.9280 O   0  0  0  0  0  0  0  0  0  0  0  0
    4.7930    0.6900    1.9150 O   0  0  0  0  0  0  0  0  0  0  0  0
   -7.6720   -0.6650    0.1190 C   0  0  0  0  0  0  0  0  0  0  0  0
   -8.7060   -0.7480   -0.2110 H   0  0  0  0  0  0  0  0  0  0  0  0
   -6.0920   -0.2850    1.9080 C   0  0  0  0  0  0  0  0  0  0  0  0
   -5.9020   -0.0790    2.9610 H   0  0  0  0  0  0  0  0  0  0  0  0
   -7.4100   -0.3970    1.4620 C   0  0  0  0  0  0  0  0  0  0  0  0
   -8.2320   -0.2750    2.1640 H   0  0  0  0  0  0  0  0  0  0  0  0
    6.5860   -1.8920    1.1140 C   0  0  0  0  0  0  0  0  0  0  0  0
    7.6590   -1.9470    1.3240 H   0  0  0  0  0  0  0  0  0  0  0  0
    6.2930   -2.8190    0.6100 H   0  0  0  0  0  0  0  0  0  0  0  0
    6.0600   -1.7980    2.0700 H   0  0  0  0  0  0  0  0  0  0  0  0
    4.9160   -2.6920   -3.0360 C   0  0  0  0  0  0  0  0  0  0  0  0
    5.7500   -3.2410   -3.4840 H   0  0  0  0  0  0  0  0  0  0  0  0
    4.5130   -2.0190   -3.7990 H   0  0  0  0  0  0  0  0  0  0  0  0
    4.1680   -3.4270   -2.7180 H   0  0  0  0  0  0  0  0  0  0  0  0
    4.0140    1.5830    2.7000 C   0  0  0  0  0  0  0  0  0  0  0  0
    4.6620    1.9940    3.4810 H   0  0  0  0  0  0  0  0  0  0  0  0
    3.1920    1.0550    3.1950 H   0  0  0  0  0  0  0  0  0  0  0  0
    3.6440    2.4210    2.1000 H   0  0  0  0  0  0  0  0  0  0  0  0
    0.4910   -0.7890    1.5320 H   0  0  0  0  0  0  0  0  0  0  0  0
   -1.2800    0.6360    2.1410 H   0  0  0  0  0  0  0  0  0  0  0  0
   -1.0380   -1.2780   -1.0680 H   0  0  0  0  0  0  0  0  0  0  0  0
    0.7930   -0.3410   -2.1540 H   0  0  0  0  0  0  0  0  0  0  0  0
  1  2  1  0  0  0  0
  1  5  1  0  0  0  0
  1 19  1  0  0  0  0
  1 64  1  0  0  0  0
  2  3  1  0  0  0  0
  2  8  1  0  0  0  0
  2 65  1  0  0  0  0
  3  4  2  0  0  0  0
  3 13  1  0  0  0  0
  4  6  1  0  0  0  0
  4 15  1  0  0  0  0
  5  6  1  0  0  0  0
  5 11  1  0  0  0  0
  5 66  1  0  0  0  0
  6 10  1  0  0  0  0
  6 67  1  0  0  0  0
  7 26  1  0  0  0  0
  7 34  1  0  0  0  0
  7 37  2  0  0  0  0
  8  9  1  0  0  0  0
  8 12  1  0  0  0  0
 10 27  2  0  0  0  0
 10 29  1  0  0  0  0
 11 18  1  0  0  0  0
 11 42  2  0  0  0  0
 12 31  1  0  0  0  0
 12 41  2  0  0  0  0
 13 14  1  0  0  0  0
 13 24  2  0  0  0  0
 15 16  1  0  0  0  0
 15 25  2  0  0  0  0
 17 22  1  0  0  0  0
 17 23  2  0  0  0  0
 17 43  1  0  0  0  0
 18 19  1  0  0  0  0
 19 20  1  0  0  0  0
 19 21  1  0  0  0  0
 22 29  2  0  0  0  0
 22 45  1  0  0  0  0
 23 27  1  0  0  0  0
 23 44  1  0  0  0  0
 24 25  1  0  0  0  0
 24 35  1  0  0  0  0
 25 36  1  0  0  0  0
 26 32  2  0  0  0  0
 26 46  1  0  0  0  0
 27 28  1  0  0  0  0
 29 30  1  0  0  0  0
 31 32  1  0  0  0  0
 31 48  2  0  0  0  0
 32 33  1  0  0  0  0
 35 38  1  0  0  0  0
 36 38  1  0  0  0  0
 38 39  1  0  0  0  0
 38 40  1  0  0  0  0
 43 52  1  0  0  0  0
 44 56  1  0  0  0  0
 45 60  1  0  0  0  0
 46 47  1  0  0  0  0
 46 50  2  0  0  0  0
 48 49  1  0  0  0  0
 48 50  1  0  0  0  0
 50 51  1  0  0  0  0
 52 53  1  0  0  0  0
 52 54  1  0  0  0  0
 52 55  1  0  0  0  0
 56 57  1  0  0  0  0
 56 58  1  0  0  0  0
 56 59  1  0  0  0  0
 60 61  1  0  0  0  0
 60 62  1  0  0  0  0
 60 63  1  0  0  0  0
M  CHG  1   7   1
M  CHG  1  34  -1
M  END
>  <IDNUMBER>
AO-313/21215015

>  <NAME>
3-nitro-N-[8-oxo-9-(3,4,5-trimethoxyphenyl)-5,5a,6,8,8a,9-hexahydrofuro[3',4':6,7]naphtho[2,3-d][1,3]dioxol-5-yl]benzamide

>  <ADD_INFO>
http://www.specs.net/enter.php?specsid=AO-313/21215015

>  <H_ACCEPTORS>
4

>  <H_DONORS>
1

>  <ROTATABLE_BONDS>
8

>  <LOGP>
2.4000001

>  <LOGS>
-5.7399998

>  <TPSA>
144.69

>  <PRICE>
N05

$$$$
AO-313/21215016
  MOE2011           3D

 68 73  0  0  1  0  0  0  0  0999 V2000
    0.9980    0.2880    0.0870 C   0  0  1  0  0  0  0  0  0  0  0  0
   -0.7320   -1.4490   -0.6410 C   0  0  0  0  0  0  0  0  0  0  0  0
    0.5360   -1.9760   -0.0320 C   0  0  0  0  0  0  0  0  0  0  0  0
    0.2550    1.1710   -0.8330 C   0  0  1  0  0  0  0  0  0  0  0  0
   -0.9860    0.1290   -1.0960 C   0  0  2  0  0  0  0  0  0  0  0  0
    1.8130   -0.9990    0.2190 C   0  0  1  0  0  0  0  0  0  0  0  0
   -2.3250    0.6480   -0.5790 C   0  0  0  0  0  0  0  0  0  0  0  0
   -0.0520    2.3680    0.0090 C   0  0  0  0  0  0  0  0  0  0  0  0
   -1.7750   -2.3530   -0.8970 C   0  0  0  0  0  0  0  0  0  0  0  0
   -2.7080   -2.0430   -1.3560 H   0  0  0  0  0  0  0  0  0  0  0  0
    0.6630   -3.3300    0.2990 C   0  0  0  0  0  0  0  0  0  0  0  0
    1.5700   -3.7330    0.7350 H   0  0  0  0  0  0  0  0  0  0  0  0
   -4.8060    1.5770    0.3170 C   0  0  0  0  0  0  0  0  0  0  0  0
    0.4070    2.1850    1.2790 O   0  0  0  0  0  0  0  0  0  0  0  0
    2.8740   -1.2440   -0.7490 N   0  0  0  0  0  0  0  0  0  0  0  0
    2.7000   -1.9240   -1.4820 H   0  0  0  0  0  0  0  0  0  0  0  0
    1.0160    0.8950    1.4260 C   0  0  0  0  0  0  0  0  0  0  0  0
    2.0200    1.0630    1.8260 H   0  0  0  0  0  0  0  0  0  0  0  0
    0.4150    0.3410    2.1550 H   0  0  0  0  0  0  0  0  0  0  0  0
   -3.9350    0.9530    1.2260 C   0  0  0  0  0  0  0  0  0  0  0  0
   -4.4380    1.7810   -1.0230 C   0  0  0  0  0  0  0  0  0  0  0  0
   -0.4200   -4.1420    0.0360 C   0  0  0  0  0  0  0  0  0  0  0  0
   -1.5870   -3.6740   -0.5390 C   0  0  0  0  0  0  0  0  0  0  0  0
    4.1200   -0.6750   -0.8090 C   0  0  0  0  0  0  0  0  0  0  0  0
   -3.1990    1.3050   -1.4620 C   0  0  0  0  0  0  0  0  0  0  0  0
   -2.8910    1.4320   -2.4960 H   0  0  0  0  0  0  0  0  0  0  0  0
   -2.7000    0.4900    0.7670 C   0  0  0  0  0  0  0  0  0  0  0  0
   -2.0130   -0.0100    1.4430 H   0  0  0  0  0  0  0  0  0  0  0  0
   -2.5110   -4.6610   -0.7080 O   0  0  0  0  0  0  0  0  0  0  0  0
   -0.4760   -5.4790    0.2950 O   0  0  0  0  0  0  0  0  0  0  0  0
   -1.8030   -5.7950   -0.1710 C   0  0  0  0  0  0  0  0  0  0  0  0
   -1.7270   -6.5620   -0.9500 H   0  0  0  0  0  0  0  0  0  0  0  0
   -2.3800   -6.2030    0.6670 H   0  0  0  0  0  0  0  0  0  0  0  0
   -0.6210    3.3760   -0.3790 O   0  0  0  0  0  0  0  0  0  0  0  0
    4.8870   -1.0130   -1.7080 O   0  0  0  0  0  0  0  0  0  0  0  0
    4.4580    0.3640    0.2450 C   0  0  0  0  0  0  0  0  0  0  0  0
    3.7980    1.2270    0.0990 H   0  0  0  0  0  0  0  0  0  0  0  0
    4.2370   -0.0440    1.2380 H   0  0  0  0  0  0  0  0  0  0  0  0
   -6.0120    2.0670    0.7690 O   0  0  0  0  0  0  0  0  0  0  0  0
   -4.3870    0.8390    2.5150 O   0  0  0  0  0  0  0  0  0  0  0  0
   -5.3530    2.4260   -1.8140 O   0  0  0  0  0  0  0  0  0  0  0  0
    5.8930    0.8270    0.2210 C   0  0  0  0  0  0  0  0  0  0  0  0
   -7.0310    1.0820    0.6080 C   0  0  0  0  0  0  0  0  0  0  0  0
   -7.9660    1.5020    0.9890 H   0  0  0  0  0  0  0  0  0  0  0  0
   -6.8070    0.1780    1.1860 H   0  0  0  0  0  0  0  0  0  0  0  0
   -7.1790    0.8290   -0.4470 H   0  0  0  0  0  0  0  0  0  0  0  0
   -3.5190    0.2450    3.4700 C   0  0  0  0  0  0  0  0  0  0  0  0
   -4.0280    0.2590    4.4390 H   0  0  0  0  0  0  0  0  0  0  0  0
   -2.5920    0.8190    3.5730 H   0  0  0  0  0  0  0  0  0  0  0  0
   -3.3120   -0.8000    3.2170 H   0  0  0  0  0  0  0  0  0  0  0  0
   -4.9200    2.8400   -3.1030 C   0  0  0  0  0  0  0  0  0  0  0  0
   -5.7240    3.4320   -3.5510 H   0  0  0  0  0  0  0  0  0  0  0  0
   -4.7440    1.9760   -3.7520 H   0  0  0  0  0  0  0  0  0  0  0  0
   -4.0320    3.4780   -3.0410 H   0  0  0  0  0  0  0  0  0  0  0  0
    6.2650    1.9610   -0.5140 C   0  0  0  0  0  0  0  0  0  0  0  0
    5.5220    2.5220   -1.0760 H   0  0  0  0  0  0  0  0  0  0  0  0
    6.8790    0.1150    0.9190 C   0  0  0  0  0  0  0  0  0  0  0  0
    6.6160   -0.7760    1.4840 H   0  0  0  0  0  0  0  0  0  0  0  0
    7.5950    2.3830   -0.5380 C   0  0  0  0  0  0  0  0  0  0  0  0
    7.8740    3.2640   -1.1100 H   0  0  0  0  0  0  0  0  0  0  0  0
    8.2090    0.5400    0.8940 C   0  0  0  0  0  0  0  0  0  0  0  0
    8.9660   -0.0180    1.4380 H   0  0  0  0  0  0  0  0  0  0  0  0
    8.5660    1.6740    0.1670 C   0  0  0  0  0  0  0  0  0  0  0  0
    9.6020    2.0020    0.1460 H   0  0  0  0  0  0  0  0  0  0  0  0
    1.0000   -0.2620   -0.8470 H   0  0  0  0  0  0  0  0  0  0  0  0
    0.8000    1.4720   -1.7360 H   0  0  0  0  0  0  0  0  0  0  0  0
   -1.0520    0.0430   -2.1920 H   0  0  0  0  0  0  0  0  0  0  0  0
    2.1890   -1.2060    1.2290 H   0  0  0  0  0  0  0  0  0  0  0  0
  1  4  1  0  0  0  0
  1  6  1  0  0  0  0
  1 17  1  0  0  0  0
  1 65  1  0  0  0  0
  2  3  2  0  0  0  0
  2  5  1  0  0  0  0
  2  9  1  0  0  0  0
  3  6  1  0  0  0  0
  3 11  1  0  0  0  0
  4  5  1  0  0  0  0
  4  8  1  0  0  0  0
  4 66  1  0  0  0  0
  5  7  1  0  0  0  0
  5 67  1  0  0  0  0
  6 15  1  0  0  0  0
  6 68  1  0  0  0  0
  7 25  2  0  0  0  0
  7 27  1  0  0  0  0
  8 14  1  0  0  0  0
  8 34  2  0  0  0  0
  9 10  1  0  0  0  0
  9 23  2  0  0  0  0
 11 12  1  0  0  0  0
 11 22  2  0  0  0  0
 13 20  1  0  0  0  0
 13 21  2  0  0  0  0
 13 39  1  0  0  0  0
 14 17  1  0  0  0  0
 15 16  1  0  0  0  0
 15 24  1  0  0  0  0
 17 18  1  0  0  0  0
 17 19  1  0  0  0  0
 20 27  2  0  0  0  0
 20 40  1  0  0  0  0
 21 25  1  0  0  0  0
 21 41  1  0  0  0  0
 22 23  1  0  0  0  0
 22 30  1  0  0  0  0
 23 29  1  0  0  0  0
 24 35  2  0  0  0  0
 24 36  1  0  0  0  0
 25 26  1  0  0  0  0
 27 28  1  0  0  0  0
 29 31  1  0  0  0  0
 30 31  1  0  0  0  0
 31 32  1  0  0  0  0
 31 33  1  0  0  0  0
 36 37  1  0  0  0  0
 36 38  1  0  0  0  0
 36 42  1  0  0  0  0
 39 43  1  0  0  0  0
 40 47  1  0  0  0  0
 41 51  1  0  0  0  0
 42 55  2  0  0  0  0
 42 57  1  0  0  0  0
 43 44  1  0  0  0  0
 43 45  1  0  0  0  0
 43 46  1  0  0  0  0
 47 48  1  0  0  0  0
 47 49  1  0  0  0  0
 47 50  1  0  0  0  0
 51 52  1  0  0  0  0
 51 53  1  0  0  0  0
 51 54  1  0  0  0  0
 55 56  1  0  0  0  0
 55 59  1  0  0  0  0
 57 58  1  0  0  0  0
 57 61  2  0  0  0  0
 59 60  1  0  0  0  0
 59 63  2  0  0  0  0
 61 62  1  0  0  0  0
 61 63  1  0  0  0  0
 63 64  1  0  0  0  0
M  END
>  <IDNUMBER>
AO-313/21215016

>  <NAME>
N-[8-oxo-9-(3,4,5-trimethoxyphenyl)-5,5a,6,8,8a,9-hexahydrofuro[3',4':6,7]naphtho[2,3-d][1,3]dioxol-5-yl]-2-phenylacetamide

>  <ADD_INFO>
http://www.specs.net/enter.php?specsid=AO-313/21215016

>  <H_ACCEPTORS>
4

>  <H_DONORS>
1

>  <ROTATABLE_BONDS>
8

>  <LOGP>
2.3900001

>  <LOGS>
-5.1100001

>  <TPSA>
101.55

>  <PRICE>
N05

$$$$
AO-313/21215017
  MOE2011           3D

 69 74  0  0  1  0  0  0  0  0999 V2000
   -0.0190    0.9740   -0.5700 C   0  0  1  0  0  0  0  0  0  0  0  0
    0.9360   -1.3470    0.8280 C   0  0  0  0  0  0  0  0  0  0  0  0
   -0.1260   -1.5010   -0.1180 C   0  0  0  0  0  0  0  0  0  0  0  0
    0.4700    1.1050    0.8590 C   0  0  1  0  0  0  0  0  0  0  0  0
    1.5090    0.0300    1.1910 C   0  0  2  0  0  0  0  0  0  0  0  0
   -0.8350   -0.3060   -0.7590 C   0  0  1  0  0  0  0  0  0  0  0  0
    2.9020    0.2640    0.6000 C   0  0  0  0  0  0  0  0  0  0  0  0
    0.8730    2.5520    0.9050 C   0  0  0  0  0  0  0  0  0  0  0  0
    1.5230   -2.4870    1.4140 C   0  0  0  0  0  0  0  0  0  0  0  0
    2.3390   -2.4020    2.1250 H   0  0  0  0  0  0  0  0  0  0  0  0
   -0.5730   -2.7940   -0.4560 C   0  0  0  0  0  0  0  0  0  0  0  0
   -1.3800   -2.9430   -1.1660 H   0  0  0  0  0  0  0  0  0  0  0  0
    5.4770    0.7370   -0.4090 C   0  0  0  0  0  0  0  0  0  0  0  0
    0.2230    3.2270   -0.0990 O   0  0  0  0  0  0  0  0  0  0  0  0
   -2.1810   -0.2110   -0.2120 N   0  0  0  0  0  0  0  0  0  0  0  0
   -2.3260   -0.5120    0.7440 H   0  0  0  0  0  0  0  0  0  0  0  0
   -0.6590    2.3230   -0.7900 C   0  0  0  0  0  0  0  0  0  0  0  0
   -1.6540    2.4340   -0.3510 H   0  0  0  0  0  0  0  0  0  0  0  0
   -0.6970    2.5930   -1.8490 H   0  0  0  0  0  0  0  0  0  0  0  0
    4.5570    0.0100   -1.1810 C   0  0  0  0  0  0  0  0  0  0  0  0
    5.1410    1.2090    0.8690 C   0  0  0  0  0  0  0  0  0  0  0  0
    0.0350   -3.8780    0.1390 C   0  0  0  0  0  0  0  0  0  0  0  0
    1.0530   -3.7280    1.0470 C   0  0  0  0  0  0  0  0  0  0  0  0
    3.2740   -0.2090   -0.6720 C   0  0  0  0  0  0  0  0  0  0  0  0
    2.5470   -0.7620   -1.2580 H   0  0  0  0  0  0  0  0  0  0  0  0
    3.8550    0.9670    1.3610 C   0  0  0  0  0  0  0  0  0  0  0  0
    3.5640    1.3230    2.3460 H   0  0  0  0  0  0  0  0  0  0  0  0
   -3.2330    0.2550   -0.9650 C   0  0  0  0  0  0  0  0  0  0  0  0
   -4.5240    0.2220   -0.2340 C   0  0  0  0  0  0  0  0  0  0  0  0
   -4.5450   -0.2020    0.7620 H   0  0  0  0  0  0  0  0  0  0  0  0
   -0.2760   -5.1840   -0.0820 O   0  0  0  0  0  0  0  0  0  0  0  0
    1.5190   -4.9190    1.5090 O   0  0  0  0  0  0  0  0  0  0  0  0
   -5.6280    0.6910   -0.8350 C   0  0  0  0  0  0  0  0  0  0  0  0
   -5.5720    1.0830   -1.8490 H   0  0  0  0  0  0  0  0  0  0  0  0
    0.6800   -5.8370    0.7800 C   0  0  0  0  0  0  0  0  0  0  0  0
    0.1340   -6.4590    1.4990 H   0  0  0  0  0  0  0  0  0  0  0  0
    1.3180   -6.4850    0.1680 H   0  0  0  0  0  0  0  0  0  0  0  0
    1.6010    3.0740    1.7320 O   0  0  0  0  0  0  0  0  0  0  0  0
   -3.1270    0.6700   -2.1130 O   0  0  0  0  0  0  0  0  0  0  0  0
    6.7530    0.9370   -0.8910 O   0  0  0  0  0  0  0  0  0  0  0  0
    6.1260    1.8800    1.5490 O   0  0  0  0  0  0  0  0  0  0  0  0
    5.0000   -0.4240   -2.4040 O   0  0  0  0  0  0  0  0  0  0  0  0
   -6.9670    0.6960   -0.2270 C   0  0  0  0  0  0  0  0  0  0  0  0
    6.8060    2.1690   -1.6110 C   0  0  0  0  0  0  0  0  0  0  0  0
    7.8280    2.2950   -1.9820 H   0  0  0  0  0  0  0  0  0  0  0  0
    6.5750    3.0220   -0.9630 H   0  0  0  0  0  0  0  0  0  0  0  0
    6.1330    2.1570   -2.4760 H   0  0  0  0  0  0  0  0  0  0  0  0
    5.7610    2.4980    2.7760 C   0  0  0  0  0  0  0  0  0  0  0  0
    6.6350    3.0440    3.1460 H   0  0  0  0  0  0  0  0  0  0  0  0
    5.4950    1.7500    3.5300 H   0  0  0  0  0  0  0  0  0  0  0  0
    4.9540    3.2230    2.6320 H   0  0  0  0  0  0  0  0  0  0  0  0
    4.1380   -1.2710   -3.1520 C   0  0  0  0  0  0  0  0  0  0  0  0
    4.6700   -1.5730   -4.0580 H   0  0  0  0  0  0  0  0  0  0  0  0
    3.2340   -0.7360   -3.4600 H   0  0  0  0  0  0  0  0  0  0  0  0
    3.8900   -2.1790   -2.5920 H   0  0  0  0  0  0  0  0  0  0  0  0
   -7.1740    0.9100    1.1430 C   0  0  0  0  0  0  0  0  0  0  0  0
   -6.3370    1.0720    1.8160 H   0  0  0  0  0  0  0  0  0  0  0  0
   -8.0820    0.5340   -1.0610 C   0  0  0  0  0  0  0  0  0  0  0  0
   -7.9530    0.3800   -2.1300 H   0  0  0  0  0  0  0  0  0  0  0  0
   -8.4690    0.9360    1.6690 C   0  0  0  0  0  0  0  0  0  0  0  0
   -8.6210    1.1020    2.7330 H   0  0  0  0  0  0  0  0  0  0  0  0
   -9.3750    0.5600   -0.5350 C   0  0  0  0  0  0  0  0  0  0  0  0
  -10.2320    0.4280   -1.1910 H   0  0  0  0  0  0  0  0  0  0  0  0
   -9.5670    0.7580    0.8300 C   0  0  0  0  0  0  0  0  0  0  0  0
  -10.5730    0.7800    1.2400 H   0  0  0  0  0  0  0  0  0  0  0  0
    0.8460    0.9270   -1.2450 H   0  0  0  0  0  0  0  0  0  0  0  0
   -0.3780    1.0090    1.5540 H   0  0  0  0  0  0  0  0  0  0  0  0
    1.6200    0.0320    2.2860 H   0  0  0  0  0  0  0  0  0  0  0  0
   -0.9160   -0.4930   -1.8380 H   0  0  0  0  0  0  0  0  0  0  0  0
  1  4  1  0  0  0  0
  1  6  1  0  0  0  0
  1 17  1  0  0  0  0
  1 66  1  0  0  0  0
  2  3  2  0  0  0  0
  2  5  1  0  0  0  0
  2  9  1  0  0  0  0
  3  6  1  0  0  0  0
  3 11  1  0  0  0  0
  4  5  1  0  0  0  0
  4  8  1  0  0  0  0
  4 67  1  0  0  0  0
  5  7  1  0  0  0  0
  5 68  1  0  0  0  0
  6 15  1  0  0  0  0
  6 69  1  0  0  0  0
  7 24  2  0  0  0  0
  7 26  1  0  0  0  0
  8 14  1  0  0  0  0
  8 38  2  0  0  0  0
  9 10  1  0  0  0  0
  9 23  2  0  0  0  0
 11 12  1  0  0  0  0
 11 22  2  0  0  0  0
 13 20  2  0  0  0  0
 13 21  1  0  0  0  0
 13 40  1  0  0  0  0
 14 17  1  0  0  0  0
 15 16  1  0  0  0  0
 15 28  1  0  0  0  0
 17 18  1  0  0  0  0
 17 19  1  0  0  0  0
 20 24  1  0  0  0  0
 20 42  1  0  0  0  0
 21 26  2  0  0  0  0
 21 41  1  0  0  0  0
 22 23  1  0  0  0  0
 22 31  1  0  0  0  0
 23 32  1  0  0  0  0
 24 25  1  0  0  0  0
 26 27  1  0  0  0  0
 28 29  1  0  0  0  0
 28 39  2  0  0  0  0
 29 30  1  0  0  0  0
 29 33  2  0  0  0  0
 31 35  1  0  0  0  0
 32 35  1  0  0  0  0
 33 34  1  0  0  0  0
 33 43  1  0  0  0  0
 35 36  1  0  0  0  0
 35 37  1  0  0  0  0
 40 44  1  0  0  0  0
 41 48  1  0  0  0  0
 42 52  1  0  0  0  0
 43 56  2  0  0  0  0
 43 58  1  0  0  0  0
 44 45  1  0  0  0  0
 44 46  1  0  0  0  0
 44 47  1  0  0  0  0
 48 49  1  0  0  0  0
 48 50  1  0  0  0  0
 48 51  1  0  0  0  0
 52 53  1  0  0  0  0
 52 54  1  0  0  0  0
 52 55  1  0  0  0  0
 56 57  1  0  0  0  0
 56 60  1  0  0  0  0
 58 59  1  0  0  0  0
 58 62  2  0  0  0  0
 60 61  1  0  0  0  0
 60 64  2  0  0  0  0
 62 63  1  0  0  0  0
 62 64  1  0  0  0  0
 64 65  1  0  0  0  0
M  END
>  <IDNUMBER>
AO-313/21215017

>  <NAME>
N-[8-oxo-9-(3,4,5-trimethoxyphenyl)-5,5a,6,8,8a,9-hexahydrofuro[3',4':6,7]naphtho[2,3-d][1,3]dioxol-5-yl]-3-phenylacrylamide

>  <ADD_INFO>
http://www.specs.net/enter.php?specsid=AO-313/21215017

>  <H_ACCEPTORS>
4

>  <H_DONORS>
1

>  <ROTATABLE_BONDS>
8

>  <LOGP>
2.6600001

>  <LOGS>
-5.4299998

>  <TPSA>
101.55

>  <PRICE>
N05

$$$$
AO-313/21215019
  MOE2011           3D

 65 70  0  0  1  0  0  0  0  0999 V2000
    0.7260   -1.2220   -0.8600 C   0  0  2  0  0  0  0  0  0  0  0  0
    1.6300    0.0080   -0.9480 C   0  0  1  0  0  0  0  0  0  0  0  0
    0.9860    1.1950   -0.2330 C   0  0  0  0  0  0  0  0  0  0  0  0
   -0.0730    1.0370    0.7150 C   0  0  0  0  0  0  0  0  0  0  0  0
    0.2380   -1.4430    0.5590 C   0  0  1  0  0  0  0  0  0  0  0  0
   -0.7150   -0.3300    1.0010 C   0  0  2  0  0  0  0  0  0  0  0  0
    4.0100   -0.6880   -1.1140 C   0  0  0  0  0  0  0  0  0  0  0  0
    2.9500   -0.2120   -0.3750 N   0  0  0  0  0  0  0  0  0  0  0  0
    3.0820    0.0050    0.6080 H   0  0  0  0  0  0  0  0  0  0  0  0
   -2.1450   -0.4370    0.4630 C   0  0  0  0  0  0  0  0  0  0  0  0
   -0.2590   -2.8600    0.4850 C   0  0  0  0  0  0  0  0  0  0  0  0
    5.3230   -0.7760   -0.4210 C   0  0  0  0  0  0  0  0  0  0  0  0
    1.5030    2.4800   -0.4910 C   0  0  0  0  0  0  0  0  0  0  0  0
    2.3110    2.6300   -1.2000 H   0  0  0  0  0  0  0  0  0  0  0  0
   -0.5850    2.1650    1.3870 C   0  0  0  0  0  0  0  0  0  0  0  0
   -1.3930    2.0780    2.1060 H   0  0  0  0  0  0  0  0  0  0  0  0
   -4.8070   -0.6280   -0.4130 C   0  0  0  0  0  0  0  0  0  0  0  0
    0.3410   -3.4870   -0.5790 O   0  0  0  0  0  0  0  0  0  0  0  0
    1.2750   -2.5850   -1.2030 C   0  0  0  0  0  0  0  0  0  0  0  0
    2.2640   -2.7980   -0.7890 H   0  0  0  0  0  0  0  0  0  0  0  0
    1.2870   -2.7650   -2.2810 H   0  0  0  0  0  0  0  0  0  0  0  0
   -4.4270   -1.2530    0.7840 C   0  0  0  0  0  0  0  0  0  0  0  0
   -3.8670    0.0530   -1.2020 C   0  0  0  0  0  0  0  0  0  0  0  0
    0.9680    3.5530    0.1880 C   0  0  0  0  0  0  0  0  0  0  0  0
   -0.0450    3.4000    1.1010 C   0  0  0  0  0  0  0  0  0  0  0  0
   -3.1050   -1.1310    1.2210 C   0  0  0  0  0  0  0  0  0  0  0  0
   -2.7930   -1.5800    2.1600 H   0  0  0  0  0  0  0  0  0  0  0  0
   -2.5430    0.1430   -0.7560 C   0  0  0  0  0  0  0  0  0  0  0  0
   -1.8060    0.6800   -1.3440 H   0  0  0  0  0  0  0  0  0  0  0  0
    1.3560    4.8510    0.0560 O   0  0  0  0  0  0  0  0  0  0  0  0
   -0.4270    4.5800    1.6580 O   0  0  0  0  0  0  0  0  0  0  0  0
    5.4970   -1.1390    0.9220 C   0  0  0  0  0  0  0  0  0  0  0  0
    3.9230   -0.9920   -2.2990 O   0  0  0  0  0  0  0  0  0  0  0  0
    0.4650    5.4940    0.9900 C   0  0  0  0  0  0  0  0  0  0  0  0
    1.0650    6.0130    1.7460 H   0  0  0  0  0  0  0  0  0  0  0  0
   -0.1340    6.2360    0.4490 H   0  0  0  0  0  0  0  0  0  0  0  0
   -1.0150   -3.4050    1.2720 O   0  0  0  0  0  0  0  0  0  0  0  0
   -6.1030   -0.7510   -0.8660 O   0  0  0  0  0  0  0  0  0  0  0  0
   -4.3380    0.5970   -2.3700 O   0  0  0  0  0  0  0  0  0  0  0  0
   -5.4080   -1.9300    1.4630 O   0  0  0  0  0  0  0  0  0  0  0  0
    4.1950   -1.6060    1.9590 Cl  0  0  0  0  0  0  0  0  0  0  0  0
    6.4520   -0.4750   -1.2010 C   0  0  0  0  0  0  0  0  0  0  0  0
    6.3370   -0.2050   -2.2500 H   0  0  0  0  0  0  0  0  0  0  0  0
    6.7840   -1.1680    1.4750 C   0  0  0  0  0  0  0  0  0  0  0  0
    6.9300   -1.4480    2.5160 H   0  0  0  0  0  0  0  0  0  0  0  0
   -6.9160    0.2810   -0.3090 C   0  0  0  0  0  0  0  0  0  0  0  0
   -7.9180    0.1850   -0.7380 H   0  0  0  0  0  0  0  0  0  0  0  0
   -6.5320    1.2750   -0.5650 H   0  0  0  0  0  0  0  0  0  0  0  0
   -7.0030    0.1770    0.7770 H   0  0  0  0  0  0  0  0  0  0  0  0
   -3.4030    1.2540   -3.2140 C   0  0  0  0  0  0  0  0  0  0  0  0
   -3.9410    1.6020   -4.1020 H   0  0  0  0  0  0  0  0  0  0  0  0
   -2.6200    0.5660   -3.5490 H   0  0  0  0  0  0  0  0  0  0  0  0
   -2.9760    2.1330   -2.7200 H   0  0  0  0  0  0  0  0  0  0  0  0
   -4.9720   -2.8580    2.4490 C   0  0  0  0  0  0  0  0  0  0  0  0
   -5.8430   -3.4420    2.7630 H   0  0  0  0  0  0  0  0  0  0  0  0
   -4.5870   -2.3370    3.3310 H   0  0  0  0  0  0  0  0  0  0  0  0
   -4.2320   -3.5570    2.0460 H   0  0  0  0  0  0  0  0  0  0  0  0
    7.7300   -0.5070   -0.6440 C   0  0  0  0  0  0  0  0  0  0  0  0
    8.5950   -0.2630   -1.2560 H   0  0  0  0  0  0  0  0  0  0  0  0
    7.8960   -0.8500    0.6950 C   0  0  0  0  0  0  0  0  0  0  0  0
    8.8920   -0.8760    1.1300 H   0  0  0  0  0  0  0  0  0  0  0  0
   -0.1400   -1.0570   -1.5170 H   0  0  0  0  0  0  0  0  0  0  0  0
    1.7530    0.2610   -2.0090 H   0  0  0  0  0  0  0  0  0  0  0  0
    1.0950   -1.4660    1.2480 H   0  0  0  0  0  0  0  0  0  0  0  0
   -0.7830   -0.4010    2.0980 H   0  0  0  0  0  0  0  0  0  0  0  0
  1  2  1  0  0  0  0
  1  5  1  0  0  0  0
  1 19  1  0  0  0  0
  1 62  1  0  0  0  0
  2  3  1  0  0  0  0
  2  8  1  0  0  0  0
  2 63  1  0  0  0  0
  3  4  2  0  0  0  0
  3 13  1  0  0  0  0
  4  6  1  0  0  0  0
  4 15  1  0  0  0  0
  5  6  1  0  0  0  0
  5 11  1  0  0  0  0
  5 64  1  0  0  0  0
  6 10  1  0  0  0  0
  6 65  1  0  0  0  0
  7  8  1  0  0  0  0
  7 12  1  0  0  0  0
  7 33  2  0  0  0  0
  8  9  1  0  0  0  0
 10 26  2  0  0  0  0
 10 28  1  0  0  0  0
 11 18  1  0  0  0  0
 11 37  2  0  0  0  0
 12 32  2  0  0  0  0
 12 42  1  0  0  0  0
 13 14  1  0  0  0  0
 13 24  2  0  0  0  0
 15 16  1  0  0  0  0
 15 25  2  0  0  0  0
 17 22  2  0  0  0  0
 17 23  1  0  0  0  0
 17 38  1  0  0  0  0
 18 19  1  0  0  0  0
 19 20  1  0  0  0  0
 19 21  1  0  0  0  0
 22 26  1  0  0  0  0
 22 40  1  0  0  0  0
 23 28  2  0  0  0  0
 23 39  1  0  0  0  0
 24 25  1  0  0  0  0
 24 30  1  0  0  0  0
 25 31  1  0  0  0  0
 26 27  1  0  0  0  0
 28 29  1  0  0  0  0
 30 34  1  0  0  0  0
 31 34  1  0  0  0  0
 32 41  1  0  0  0  0
 32 44  1  0  0  0  0
 34 35  1  0  0  0  0
 34 36  1  0  0  0  0
 38 46  1  0  0  0  0
 39 50  1  0  0  0  0
 40 54  1  0  0  0  0
 42 43  1  0  0  0  0
 42 58  2  0  0  0  0
 44 45  1  0  0  0  0
 44 60  2  0  0  0  0
 46 47  1  0  0  0  0
 46 48  1  0  0  0  0
 46 49  1  0  0  0  0
 50 51  1  0  0  0  0
 50 52  1  0  0  0  0
 50 53  1  0  0  0  0
 54 55  1  0  0  0  0
 54 56  1  0  0  0  0
 54 57  1  0  0  0  0
 58 59  1  0  0  0  0
 58 60  1  0  0  0  0
 60 61  1  0  0  0  0
M  END
>  <IDNUMBER>
AO-313/21215019

>  <NAME>
2-chloro-N-[8-oxo-9-(3,4,5-trimethoxyphenyl)-5,5a,6,8,8a,9-hexahydrofuro[3',4':6,7]naphtho[2,3-d][1,3]dioxol-5-yl]benzamide

>  <ADD_INFO>
http://www.specs.net/enter.php?specsid=AO-313/21215019

>  <H_ACCEPTORS>
4

>  <H_DONORS>
1

>  <ROTATABLE_BONDS>
7

>  <LOGP>
3.22

>  <LOGS>
-5.9699998

>  <TPSA>
101.55

>  <PRICE>
N05

$$$$
AO-313/21254004
  MOE2011           3D

 65 70  0  0  1  0  0  0  0  0999 V2000
    0.7890   -1.1170   -0.7470 C   0  0  2  0  0  0  0  0  0  0  0  0
    1.6730    0.1160   -0.9400 C   0  0  1  0  0  0  0  0  0  0  0  0
    1.0460    1.3390   -0.2690 C   0  0  0  0  0  0  0  0  0  0  0  0
    0.0150    1.2300    0.7160 C   0  0  0  0  0  0  0  0  0  0  0  0
    0.3430   -1.2480    0.6960 C   0  0  1  0  0  0  0  0  0  0  0  0
   -0.6140   -0.1200    1.0900 C   0  0  2  0  0  0  0  0  0  0  0  0
    3.0200   -0.0580   -0.4130 N   0  0  0  0  0  0  0  0  0  0  0  0
    3.1990    0.2590    0.5310 H   0  0  0  0  0  0  0  0  0  0  0  0
   -2.0440   -0.2630    0.5670 C   0  0  0  0  0  0  0  0  0  0  0  0
   -0.1470   -2.6680    0.7300 C   0  0  0  0  0  0  0  0  0  0  0  0
    4.0360   -0.5970   -1.1760 C   0  0  0  0  0  0  0  0  0  0  0  0
   -0.4870    2.3910    1.3360 C   0  0  0  0  0  0  0  0  0  0  0  0
   -1.2770    2.3400    2.0790 H   0  0  0  0  0  0  0  0  0  0  0  0
    1.5480    2.6110   -0.6100 C   0  0  0  0  0  0  0  0  0  0  0  0
    2.3360    2.7250   -1.3480 H   0  0  0  0  0  0  0  0  0  0  0  0
   -4.6980   -0.5590   -0.3230 C   0  0  0  0  0  0  0  0  0  0  0  0
    0.4280   -3.3610   -0.3070 O   0  0  0  0  0  0  0  0  0  0  0  0
    1.3380   -2.4970   -1.0140 C   0  0  0  0  0  0  0  0  0  0  0  0
    2.3400   -2.6760   -0.6140 H   0  0  0  0  0  0  0  0  0  0  0  0
    1.3230   -2.7480   -2.0780 H   0  0  0  0  0  0  0  0  0  0  0  0
   -3.7590    0.0910   -1.1290 C   0  0  0  0  0  0  0  0  0  0  0  0
   -4.3390   -1.0250    0.9520 C   0  0  0  0  0  0  0  0  0  0  0  0
    0.0350    3.6100    0.9670 C   0  0  0  0  0  0  0  0  0  0  0  0
    1.0240    3.7180    0.0220 C   0  0  0  0  0  0  0  0  0  0  0  0
   -2.4370    0.2090   -0.6940 C   0  0  0  0  0  0  0  0  0  0  0  0
   -1.7260    0.7010   -1.3530 H   0  0  0  0  0  0  0  0  0  0  0  0
   -3.0160   -0.8720    1.3840 C   0  0  0  0  0  0  0  0  0  0  0  0
   -2.7080   -1.2340    2.3610 H   0  0  0  0  0  0  0  0  0  0  0  0
    5.3690   -0.7050   -0.5280 C   0  0  0  0  0  0  0  0  0  0  0  0
    1.4010    5.0080   -0.1910 O   0  0  0  0  0  0  0  0  0  0  0  0
   -0.3450    4.8170    1.4640 O   0  0  0  0  0  0  0  0  0  0  0  0
    0.5180    5.6980    0.7170 C   0  0  0  0  0  0  0  0  0  0  0  0
    1.1250    6.2760    1.4240 H   0  0  0  0  0  0  0  0  0  0  0  0
   -0.1040    6.3930    0.1410 H   0  0  0  0  0  0  0  0  0  0  0  0
    3.8860   -0.9630   -2.3370 O   0  0  0  0  0  0  0  0  0  0  0  0
   -0.8760   -3.1610    1.5740 O   0  0  0  0  0  0  0  0  0  0  0  0
    5.5170   -0.8880    0.8530 C   0  0  0  0  0  0  0  0  0  0  0  0
    4.6580   -0.9880    1.5100 H   0  0  0  0  0  0  0  0  0  0  0  0
    6.5060   -0.6420   -1.3460 C   0  0  0  0  0  0  0  0  0  0  0  0
    6.4010   -0.5170   -2.4220 H   0  0  0  0  0  0  0  0  0  0  0  0
   -5.9900   -0.7290   -0.7600 O   0  0  0  0  0  0  0  0  0  0  0  0
    7.9200   -0.8990    0.5910 C   0  0  0  0  0  0  0  0  0  0  0  0
   -4.0080    0.5890   -2.3820 O   0  0  0  0  0  0  0  0  0  0  0  0
   -5.3370   -1.6140    1.6850 O   0  0  0  0  0  0  0  0  0  0  0  0
    7.7820   -0.7340   -0.7860 C   0  0  0  0  0  0  0  0  0  0  0  0
    8.6570   -0.6770   -1.4280 H   0  0  0  0  0  0  0  0  0  0  0  0
    6.7950   -0.9810    1.4110 C   0  0  0  0  0  0  0  0  0  0  0  0
    6.9040   -1.1240    2.4830 H   0  0  0  0  0  0  0  0  0  0  0  0
    9.4910   -1.0160    1.2830 Cl  0  0  0  0  0  0  0  0  0  0  0  0
   -6.0960   -1.9650   -1.4680 C   0  0  0  0  0  0  0  0  0  0  0  0
   -7.1350   -2.0750   -1.7930 H   0  0  0  0  0  0  0  0  0  0  0  0
   -5.8510   -2.8170   -0.8250 H   0  0  0  0  0  0  0  0  0  0  0  0
   -5.4620   -1.9670   -2.3610 H   0  0  0  0  0  0  0  0  0  0  0  0
   -5.1400    1.4550   -2.4340 C   0  0  0  0  0  0  0  0  0  0  0  0
   -4.9610    2.1860   -3.2280 H   0  0  0  0  0  0  0  0  0  0  0  0
   -5.2940    2.0090   -1.5000 H   0  0  0  0  0  0  0  0  0  0  0  0
   -6.0380    0.8900   -2.7020 H   0  0  0  0  0  0  0  0  0  0  0  0
   -4.9830   -2.1640    2.9470 C   0  0  0  0  0  0  0  0  0  0  0  0
   -5.8810   -2.6150    3.3780 H   0  0  0  0  0  0  0  0  0  0  0  0
   -4.6410   -1.3830    3.6350 H   0  0  0  0  0  0  0  0  0  0  0  0
   -4.2340   -2.9550    2.8390 H   0  0  0  0  0  0  0  0  0  0  0  0
   -0.0940   -1.0060   -1.3910 H   0  0  0  0  0  0  0  0  0  0  0  0
    1.7480    0.3110   -2.0180 H   0  0  0  0  0  0  0  0  0  0  0  0
    1.2200   -1.2180    1.3610 H   0  0  0  0  0  0  0  0  0  0  0  0
   -0.6700   -0.1310    2.1890 H   0  0  0  0  0  0  0  0  0  0  0  0
  1  2  1  0  0  0  0
  1  5  1  0  0  0  0
  1 18  1  0  0  0  0
  1 62  1  0  0  0  0
  2  3  1  0  0  0  0
  2  7  1  0  0  0  0
  2 63  1  0  0  0  0
  3  4  2  0  0  0  0
  3 14  1  0  0  0  0
  4  6  1  0  0  0  0
  4 12  1  0  0  0  0
  5  6  1  0  0  0  0
  5 10  1  0  0  0  0
  5 64  1  0  0  0  0
  6  9  1  0  0  0  0
  6 65  1  0  0  0  0
  7  8  1  0  0  0  0
  7 11  1  0  0  0  0
  9 25  2  0  0  0  0
  9 27  1  0  0  0  0
 10 17  1  0  0  0  0
 10 36  2  0  0  0  0
 11 29  1  0  0  0  0
 11 35  2  0  0  0  0
 12 13  1  0  0  0  0
 12 23  2  0  0  0  0
 14 15  1  0  0  0  0
 14 24  2  0  0  0  0
 16 21  2  0  0  0  0
 16 22  1  0  0  0  0
 16 41  1  0  0  0  0
 17 18  1  0  0  0  0
 18 19  1  0  0  0  0
 18 20  1  0  0  0  0
 21 25  1  0  0  0  0
 21 43  1  0  0  0  0
 22 27  2  0  0  0  0
 22 44  1  0  0  0  0
 23 24  1  0  0  0  0
 23 31  1  0  0  0  0
 24 30  1  0  0  0  0
 25 26  1  0  0  0  0
 27 28  1  0  0  0  0
 29 37  2  0  0  0  0
 29 39  1  0  0  0  0
 30 32  1  0  0  0  0
 31 32  1  0  0  0  0
 32 33  1  0  0  0  0
 32 34  1  0  0  0  0
 37 38  1  0  0  0  0
 37 47  1  0  0  0  0
 39 40  1  0  0  0  0
 39 45  2  0  0  0  0
 41 50  1  0  0  0  0
 42 45  1  0  0  0  0
 42 47  2  0  0  0  0
 42 49  1  0  0  0  0
 43 54  1  0  0  0  0
 44 58  1  0  0  0  0
 45 46  1  0  0  0  0
 47 48  1  0  0  0  0
 50 51  1  0  0  0  0
 50 52  1  0  0  0  0
 50 53  1  0  0  0  0
 54 55  1  0  0  0  0
 54 56  1  0  0  0  0
 54 57  1  0  0  0  0
 58 59  1  0  0  0  0
 58 60  1  0  0  0  0
 58 61  1  0  0  0  0
M  END
>  <IDNUMBER>
AO-313/21254004

>  <NAME>
4-chloro-N-[8-oxo-9-(3,4,5-trimethoxyphenyl)-5,5a,6,8,8a,9-hexahydrofuro[3',4':6,7]naphtho[2,3-d][1,3]dioxol-5-yl]benzamide

>  <ADD_INFO>
http://www.specs.net/enter.php?specsid=AO-313/21254004

>  <H_ACCEPTORS>
4

>  <H_DONORS>
1

>  <ROTATABLE_BONDS>
7

>  <LOGP>
3.22

>  <LOGS>
-5.9699998

>  <TPSA>
101.55

>  <PRICE>
N05

$$$$
AO-324/40744306
  MOE2011           3D

 58 59  0  0  0  0  0  0  0  0999 V2000
   -0.8780   -1.2220    0.4460 C   0  0  0  0  0  0  0  0  0  0  0  0
   -2.0270   -1.4710   -0.3270 C   0  0  0  0  0  0  0  0  0  0  0  0
   -2.9250   -0.4440   -0.6520 C   0  0  0  0  0  0  0  0  0  0  0  0
   -0.6640    0.0540    0.9880 C   0  0  0  0  0  0  0  0  0  0  0  0
   -2.6880    0.8430   -0.1330 C   0  0  0  0  0  0  0  0  0  0  0  0
   -1.5690    1.0800    0.6820 C   0  0  0  0  0  0  0  0  0  0  0  0
   -1.4070    2.0730    1.0810 H   0  0  0  0  0  0  0  0  0  0  0  0
    0.0380   -2.3650    0.6690 C   0  0  0  0  0  0  0  0  0  0  0  0
   -4.1510   -0.7350   -1.4950 C   0  0  0  0  0  0  0  0  0  0  0  0
   -4.3960    0.1350   -2.1110 H   0  0  0  0  0  0  0  0  0  0  0  0
   -3.9150   -1.5140   -2.2320 H   0  0  0  0  0  0  0  0  0  0  0  0
    1.5150   -2.2200    0.6330 C   0  0  0  0  0  0  0  0  0  0  0  0
    2.0530   -2.9350    1.2450 H   0  0  0  0  0  0  0  0  0  0  0  0
   -5.3170   -1.2070   -0.6670 C   0  0  0  0  0  0  0  0  0  0  0  0
   -5.1580   -2.1850   -0.2120 H   0  0  0  0  0  0  0  0  0  0  0  0
    5.5110    0.3320   -0.5180 C   0  0  0  0  0  0  0  0  0  0  0  0
    2.1400   -1.3310   -0.1540 C   0  0  0  0  0  0  0  0  0  0  0  0
    1.5750   -0.6490   -0.7840 H   0  0  0  0  0  0  0  0  0  0  0  0
    6.3760   -0.7720   -0.4410 C   0  0  0  0  0  0  0  0  0  0  0  0
    4.1280    0.1160   -0.4010 C   0  0  0  0  0  0  0  0  0  0  0  0
    3.4310    0.9470   -0.4460 H   0  0  0  0  0  0  0  0  0  0  0  0
   -6.4940   -0.5900   -0.4470 C   0  0  0  0  0  0  0  0  0  0  0  0
   -0.4660   -3.4850    0.7910 O   0  0  0  0  0  0  0  0  0  0  0  0
   -2.3050   -2.7430   -0.7730 O   0  0  0  0  0  0  0  0  0  0  0  0
   -1.7450   -3.3710   -0.2540 H   0  0  0  0  0  0  0  0  0  0  0  0
    3.6000   -1.1750   -0.2270 C   0  0  0  0  0  0  0  0  0  0  0  0
    5.8500   -2.0610   -0.3050 C   0  0  0  0  0  0  0  0  0  0  0  0
    6.5210   -2.9170   -0.2820 H   0  0  0  0  0  0  0  0  0  0  0  0
    0.4090    0.2010    1.8260 O   0  0  0  0  0  0  0  0  0  0  0  0
   -3.6020    1.8050   -0.4810 O   0  0  0  0  0  0  0  0  0  0  0  0
    4.4730   -2.2640   -0.1970 C   0  0  0  0  0  0  0  0  0  0  0  0
    4.1000   -3.2810   -0.1050 H   0  0  0  0  0  0  0  0  0  0  0  0
    6.0730    1.5630   -0.7330 O   0  0  0  0  0  0  0  0  0  0  0  0
    7.7440   -0.7370   -0.5530 O   0  0  0  0  0  0  0  0  0  0  0  0
   -6.8880    0.7540   -0.9930 C   0  0  0  0  0  0  0  0  0  0  0  0
   -7.8010    0.6640   -1.5900 H   0  0  0  0  0  0  0  0  0  0  0  0
   -6.1280    1.2090   -1.6310 H   0  0  0  0  0  0  0  0  0  0  0  0
   -7.0820    1.4500   -0.1700 H   0  0  0  0  0  0  0  0  0  0  0  0
   -7.5470   -1.2380    0.4140 C   0  0  0  0  0  0  0  0  0  0  0  0
   -7.7790   -0.6000    1.2730 H   0  0  0  0  0  0  0  0  0  0  0  0
   -7.2280   -2.2120    0.8000 H   0  0  0  0  0  0  0  0  0  0  0  0
   -8.4650   -1.3940   -0.1620 H   0  0  0  0  0  0  0  0  0  0  0  0
    0.6930    1.4980    2.3360 C   0  0  0  0  0  0  0  0  0  0  0  0
    1.6020    1.4260    2.9410 H   0  0  0  0  0  0  0  0  0  0  0  0
   -0.1140    1.8490    2.9870 H   0  0  0  0  0  0  0  0  0  0  0  0
    0.8890    2.2070    1.5250 H   0  0  0  0  0  0  0  0  0  0  0  0
   -3.5720    3.0380    0.2260 C   0  0  0  0  0  0  0  0  0  0  0  0
   -4.4410    3.6240   -0.0870 H   0  0  0  0  0  0  0  0  0  0  0  0
   -2.6750    3.6120   -0.0280 H   0  0  0  0  0  0  0  0  0  0  0  0
   -3.6490    2.8800    1.3070 H   0  0  0  0  0  0  0  0  0  0  0  0
    5.2020    2.6760   -0.8840 C   0  0  0  0  0  0  0  0  0  0  0  0
    5.8190    3.5590   -1.0760 H   0  0  0  0  0  0  0  0  0  0  0  0
    4.6370    2.8610    0.0360 H   0  0  0  0  0  0  0  0  0  0  0  0
    4.5350    2.5450   -1.7420 H   0  0  0  0  0  0  0  0  0  0  0  0
    8.3890    0.3290    0.1370 C   0  0  0  0  0  0  0  0  0  0  0  0
    9.3960   -0.0100    0.4020 H   0  0  0  0  0  0  0  0  0  0  0  0
    7.8770    0.6000    1.0670 H   0  0  0  0  0  0  0  0  0  0  0  0
    8.5000    1.1960   -0.5210 H   0  0  0  0  0  0  0  0  0  0  0  0
  1  2  2  0  0  0  0
  1  4  1  0  0  0  0
  1  8  1  0  0  0  0
  2  3  1  0  0  0  0
  2 24  1  0  0  0  0
  3  5  2  0  0  0  0
  3  9  1  0  0  0  0
  4  6  2  0  0  0  0
  4 29  1  0  0  0  0
  5  6  1  0  0  0  0
  5 30  1  0  0  0  0
  6  7  1  0  0  0  0
  8 12  1  0  0  0  0
  8 23  2  0  0  0  0
  9 10  1  0  0  0  0
  9 11  1  0  0  0  0
  9 14  1  0  0  0  0
 12 13  1  0  0  0  0
 12 17  2  0  0  0  0
 14 15  1  0  0  0  0
 14 22  2  0  0  0  0
 16 19  2  0  0  0  0
 16 20  1  0  0  0  0
 16 33  1  0  0  0  0
 17 18  1  0  0  0  0
 17 26  1  0  0  0  0
 19 27  1  0  0  0  0
 19 34  1  0  0  0  0
 20 21  1  0  0  0  0
 20 26  2  0  0  0  0
 22 35  1  0  0  0  0
 22 39  1  0  0  0  0
 24 25  1  0  0  0  0
 26 31  1  0  0  0  0
 27 28  1  0  0  0  0
 27 31  2  0  0  0  0
 29 43  1  0  0  0  0
 30 47  1  0  0  0  0
 31 32  1  0  0  0  0
 33 51  1  0  0  0  0
 34 55  1  0  0  0  0
 35 36  1  0  0  0  0
 35 37  1  0  0  0  0
 35 38  1  0  0  0  0
 39 40  1  0  0  0  0
 39 41  1  0  0  0  0
 39 42  1  0  0  0  0
 43 44  1  0  0  0  0
 43 45  1  0  0  0  0
 43 46  1  0  0  0  0
 47 48  1  0  0  0  0
 47 49  1  0  0  0  0
 47 50  1  0  0  0  0
 51 52  1  0  0  0  0
 51 53  1  0  0  0  0
 51 54  1  0  0  0  0
 55 56  1  0  0  0  0
 55 57  1  0  0  0  0
 55 58  1  0  0  0  0
M  END
>  <IDNUMBER>
AO-324/40744306

>  <NAME>
2',3,4,4',6'-Pentahydroxy-3'-prenylchalcone, derivative of

>  <ADD_INFO>
http://www.specs.net/enter.php?specsid=AO-324/40744306

>  <H_ACCEPTORS>
1

>  <H_DONORS>
1

>  <ROTATABLE_BONDS>
9

>  <LOGP>
6.1100001

>  <LOGS>
-6.8499999

>  <TPSA>
74.220001

>  <PRICE>
N07

$$$$
AO-774/41465361
  MOE2011           3D

 66 69  0  0  1  0  0  0  0  0999 V2000
    2.1120   -0.6800    0.2150 C   0  0  1  0  0  0  0  0  0  0  0  0
   -2.2270    0.4190   -0.0450 C   0  0  1  0  0  0  0  0  0  0  0  0
   -3.1860   -0.7670   -0.2060 C   0  0  0  0  0  0  0  0  0  0  0  0
    1.0800   -1.7090   -0.2960 C   0  0  2  0  0  0  0  0  0  0  0  0
   -0.7490    0.0150   -0.4370 C   0  0  2  0  0  0  0  0  0  0  0  0
   -0.3620   -1.3870    0.1110 C   0  0  1  0  0  0  0  0  0  0  0  0
    3.4110   -1.3390   -0.3140 C   0  0  2  0  0  0  0  0  0  0  0  0
   -2.7610   -2.0300   -0.3950 C   0  0  0  0  0  0  0  0  0  0  0  0
   -3.4860   -2.8300   -0.5260 H   0  0  0  0  0  0  0  0  0  0  0  0
    1.7530    0.6730   -0.4180 C   0  0  0  0  0  0  0  0  0  0  0  0
    2.4340    1.4580   -0.0710 H   0  0  0  0  0  0  0  0  0  0  0  0
    1.8640    0.6240   -1.5090 H   0  0  0  0  0  0  0  0  0  0  0  0
   -1.3270   -2.4520   -0.4290 C   0  0  0  0  0  0  0  0  0  0  0  0
   -1.2170   -3.3680    0.1640 H   0  0  0  0  0  0  0  0  0  0  0  0
   -1.0770   -2.7130   -1.4650 H   0  0  0  0  0  0  0  0  0  0  0  0
    0.3120    1.0920   -0.0840 C   0  0  0  0  0  0  0  0  0  0  0  0
    0.0930    2.0230   -0.6190 H   0  0  0  0  0  0  0  0  0  0  0  0
    0.2680    1.3390    0.9810 H   0  0  0  0  0  0  0  0  0  0  0  0
    1.6730   -3.0490    0.1180 C   0  0  0  0  0  0  0  0  0  0  0  0
    1.4550   -3.2790    1.1670 H   0  0  0  0  0  0  0  0  0  0  0  0
    1.2910   -3.8770   -0.4880 H   0  0  0  0  0  0  0  0  0  0  0  0
   -2.6720    1.6090   -0.9590 C   0  0  0  0  0  0  0  0  0  0  0  0
   -2.7930    2.5190   -0.3580 H   0  0  0  0  0  0  0  0  0  0  0  0
   -1.8960    1.8560   -1.6940 H   0  0  0  0  0  0  0  0  0  0  0  0
    3.1840   -2.8560   -0.0900 C   0  0  0  0  0  0  0  0  0  0  0  0
    3.5210   -3.4120   -0.9720 H   0  0  0  0  0  0  0  0  0  0  0  0
    3.7330   -3.2600    0.7670 H   0  0  0  0  0  0  0  0  0  0  0  0
    4.7110   -0.8310    0.3100 C   0  0  0  0  0  0  0  0  0  0  0  0
   -4.6750   -0.4760   -0.1640 C   0  0  0  0  0  0  0  0  0  0  0  0
   -4.9990   -0.4700    0.8830 H   0  0  0  0  0  0  0  0  0  0  0  0
   -5.2150   -1.2970   -0.6540 H   0  0  0  0  0  0  0  0  0  0  0  0
   -6.5710    1.9910    0.7480 C   0  0  0  0  0  0  0  0  0  0  0  0
    7.1690    1.8540   -0.1950 C   0  0  0  0  0  0  0  0  0  0  0  0
   -5.3760    1.8520    0.1260 O   0  0  0  0  0  0  0  0  0  0  0  0
   -5.0840    0.8300   -0.8630 C   0  0  1  0  0  0  0  0  0  0  0  0
    5.3300    0.4000   -0.3420 C   0  0  0  0  0  0  0  0  0  0  0  0
    4.6350    1.2360   -0.2380 H   0  0  0  0  0  0  0  0  0  0  0  0
    5.5140    0.1720   -1.3970 H   0  0  0  0  0  0  0  0  0  0  0  0
    6.5650    0.7300    0.2930 O   0  0  0  0  0  0  0  0  0  0  0  0
   -6.7350    2.8370    1.6220 O   0  0  0  0  0  0  0  0  0  0  0  0
    6.7160    2.5380   -1.1010 O   0  0  0  0  0  0  0  0  0  0  0  0
    5.2230   -1.3790    1.2860 O   0  0  0  0  0  0  0  0  0  0  0  0
   -3.9640    1.3690   -1.7490 C   0  0  0  0  0  0  0  0  0  0  0  0
   -3.7690    0.6700   -2.5720 H   0  0  0  0  0  0  0  0  0  0  0  0
   -4.2730    2.3190   -2.2010 H   0  0  0  0  0  0  0  0  0  0  0  0
    2.1540   -0.5480    1.7580 C   0  0  0  0  0  0  0  0  0  0  0  0
    1.1840   -0.2840    2.1880 H   0  0  0  0  0  0  0  0  0  0  0  0
    2.8570    0.2370    2.0580 H   0  0  0  0  0  0  0  0  0  0  0  0
    2.4750   -1.4730    2.2480 H   0  0  0  0  0  0  0  0  0  0  0  0
   -2.3050    0.8660    1.4370 C   0  0  0  0  0  0  0  0  0  0  0  0
   -1.7370    1.7850    1.6170 H   0  0  0  0  0  0  0  0  0  0  0  0
   -1.9220    0.0960    2.1140 H   0  0  0  0  0  0  0  0  0  0  0  0
   -3.3330    1.0820    1.7460 H   0  0  0  0  0  0  0  0  0  0  0  0
    9.3730    3.6380   -0.1230 Br  0  0  0  0  0  0  0  0  0  0  0  0
    8.4420    2.0840    0.5730 C   0  0  0  0  0  0  0  0  0  0  0  0
    9.1180    1.2340    0.4580 H   0  0  0  0  0  0  0  0  0  0  0  0
    8.2250    2.2870    1.6240 H   0  0  0  0  0  0  0  0  0  0  0  0
   -7.6860    1.0870    0.3130 C   0  0  0  0  0  0  0  0  0  0  0  0
   -7.9740    1.3110   -0.7170 H   0  0  0  0  0  0  0  0  0  0  0  0
   -8.5570    1.2680    0.9510 H   0  0  0  0  0  0  0  0  0  0  0  0
   -7.4090    0.0380    0.4320 H   0  0  0  0  0  0  0  0  0  0  0  0
    1.1040   -1.6950   -1.3990 H   0  0  0  0  0  0  0  0  0  0  0  0
   -0.4430   -1.3880    1.2040 H   0  0  0  0  0  0  0  0  0  0  0  0
   -0.7280   -0.0760   -1.5350 H   0  0  0  0  0  0  0  0  0  0  0  0
    3.4950   -1.1830   -1.3990 H   0  0  0  0  0  0  0  0  0  0  0  0
   -5.9660    0.6680   -1.4910 H   0  0  0  0  0  0  0  0  0  0  0  0
  1  4  1  0  0  0  0
  1  7  1  0  0  0  0
  1 10  1  0  0  0  0
  1 46  1  0  0  0  0
  2  3  1  0  0  0  0
  2  5  1  0  0  0  0
  2 22  1  0  0  0  0
  2 50  1  0  0  0  0
  3  8  2  0  0  0  0
  3 29  1  0  0  0  0
  4  6  1  0  0  0  0
  4 19  1  0  0  0  0
  4 62  1  0  0  0  0
  5  6  1  0  0  0  0
  5 16  1  0  0  0  0
  5 64  1  0  0  0  0
  6 13  1  0  0  0  0
  6 63  1  0  0  0  0
  7 25  1  0  0  0  0
  7 28  1  0  0  0  0
  7 65  1  0  0  0  0
  8  9  1  0  0  0  0
  8 13  1  0  0  0  0
 10 11  1  0  0  0  0
 10 12  1  0  0  0  0
 10 16  1  0  0  0  0
 13 14  1  0  0  0  0
 13 15  1  0  0  0  0
 16 17  1  0  0  0  0
 16 18  1  0  0  0  0
 19 20  1  0  0  0  0
 19 21  1  0  0  0  0
 19 25  1  0  0  0  0
 22 23  1  0  0  0  0
 22 24  1  0  0  0  0
 22 43  1  0  0  0  0
 25 26  1  0  0  0  0
 25 27  1  0  0  0  0
 28 36  1  0  0  0  0
 28 42  2  0  0  0  0
 29 30  1  0  0  0  0
 29 31  1  0  0  0  0
 29 35  1  0  0  0  0
 32 34  1  0  0  0  0
 32 40  2  0  0  0  0
 32 58  1  0  0  0  0
 33 39  1  0  0  0  0
 33 41  2  0  0  0  0
 33 55  1  0  0  0  0
 34 35  1  0  0  0  0
 35 43  1  0  0  0  0
 35 66  1  0  0  0  0
 36 37  1  0  0  0  0
 36 38  1  0  0  0  0
 36 39  1  0  0  0  0
 43 44  1  0  0  0  0
 43 45  1  0  0  0  0
 46 47  1  0  0  0  0
 46 48  1  0  0  0  0
 46 49  1  0  0  0  0
 50 51  1  0  0  0  0
 50 52  1  0  0  0  0
 50 53  1  0  0  0  0
 54 55  1  0  0  0  0
 55 56  1  0  0  0  0
 55 57  1  0  0  0  0
 58 59  1  0  0  0  0
 58 60  1  0  0  0  0
 58 61  1  0  0  0  0
M  END
>  <IDNUMBER>
AO-774/41465361

>  <NAME>
3-(acetyloxy)-20-oxopregn-5-en-21-yl bromoacetate

>  <ADD_INFO>
http://www.specs.net/enter.php?specsid=AO-774/41465361

>  <H_ACCEPTORS>
5

>  <H_DONORS>
0

>  <ROTATABLE_BONDS>
7

>  <LOGP>
5.2800002

>  <LOGS>
-7.3200002

>  <TPSA>
69.669998

>  <PRICE>
N06

$$$$
AO-774/41465368
  MOE2011           3D

 71 74  0  0  1  0  0  0  0  0999 V2000
   -1.7400   -0.4920    0.2810 C   0  0  1  0  0  0  0  0  0  0  0  0
    2.7400   -0.3740    0.4840 C   0  0  1  0  0  0  0  0  0  0  0  0
    3.3630    1.0290    0.4520 C   0  0  0  0  0  0  0  0  0  0  0  0
   -0.9770    0.8180   -0.0430 C   0  0  2  0  0  0  0  0  0  0  0  0
    1.2620   -0.3450   -0.0760 C   0  0  3  0  0  0  0  0  0  0  0  0
    0.4580    0.8570    0.4970 C   0  0  3  0  0  0  0  0  0  0  0  0
   -3.1210   -0.1350   -0.3630 C   0  0  1  0  0  0  0  0  0  0  0  0
    2.6350    2.1460    0.2760 C   0  0  0  0  0  0  0  0  0  0  0  0
    3.1310    3.1150    0.2420 H   0  0  0  0  0  0  0  0  0  0  0  0
   -0.9620   -1.6320   -0.4010 C   0  0  0  0  0  0  0  0  0  0  0  0
   -1.4270   -2.6020   -0.1990 H   0  0  0  0  0  0  0  0  0  0  0  0
   -0.9770   -1.5020   -1.4900 H   0  0  0  0  0  0  0  0  0  0  0  0
    1.1480    2.1790    0.1220 C   0  0  0  0  0  0  0  0  0  0  0  0
    0.7470    2.9820    0.7510 H   0  0  0  0  0  0  0  0  0  0  0  0
    0.9240    2.4500   -0.9180 H   0  0  0  0  0  0  0  0  0  0  0  0
    0.5020   -1.6890    0.0690 C   0  0  0  0  0  0  0  0  0  0  0  0
    1.0120   -2.4650   -0.5120 H   0  0  0  0  0  0  0  0  0  0  0  0
    0.5160   -2.0280    1.1090 H   0  0  0  0  0  0  0  0  0  0  0  0
   -1.9400    1.9150    0.3870 C   0  0  0  0  0  0  0  0  0  0  0  0
   -1.8680    2.1130    1.4620 H   0  0  0  0  0  0  0  0  0  0  0  0
   -1.7500    2.8590   -0.1360 H   0  0  0  0  0  0  0  0  0  0  0  0
   -4.3640   -1.0660   -0.1980 C   0  0  3  0  0  0  0  0  0  0  0  0
    3.5830   -1.3270   -0.4150 C   0  0  0  0  0  0  0  0  0  0  0  0
    3.2680   -2.3670   -0.2690 H   0  0  0  0  0  0  0  0  0  0  0  0
    3.3990   -1.0940   -1.4720 H   0  0  0  0  0  0  0  0  0  0  0  0
   -3.3280    1.3530    0.0360 C   0  0  0  0  0  0  0  0  0  0  0  0
   -3.7610    1.9140   -0.7990 H   0  0  0  0  0  0  0  0  0  0  0  0
   -3.9910    1.4800    0.8960 H   0  0  0  0  0  0  0  0  0  0  0  0
    4.8640    1.1190    0.6200 C   0  0  0  0  0  0  0  0  0  0  0  0
    5.1330    0.8860    1.6580 H   0  0  0  0  0  0  0  0  0  0  0  0
    5.2270    2.1420    0.4580 H   0  0  0  0  0  0  0  0  0  0  0  0
    8.0190    0.0280   -0.8660 C   0  0  0  0  0  0  0  0  0  0  0  0
   -7.2520    0.6610   -0.7110 C   0  0  0  0  0  0  0  0  0  0  0  0
    7.0080    0.2200    0.0140 O   0  0  0  0  0  0  0  0  0  0  0  0
   -5.4200   -0.7550   -1.2950 C   0  0  0  0  0  0  0  0  0  0  0  0
   -6.2000   -1.5280   -1.3070 H   0  0  0  0  0  0  0  0  0  0  0  0
   -4.9540   -0.8160   -2.2870 H   0  0  0  0  0  0  0  0  0  0  0  0
    5.6040    0.1810   -0.3370 C   0  0  1  0  0  0  0  0  0  0  0  0
   -5.9760    0.5640   -1.1730 O   0  0  0  0  0  0  0  0  0  0  0  0
    9.1870   -0.0200   -0.4870 O   0  0  0  0  0  0  0  0  0  0  0  0
   -7.9690   -0.2690   -0.3700 O   0  0  0  0  0  0  0  0  0  0  0  0
    5.0910   -1.2500   -0.1760 C   0  0  0  0  0  0  0  0  0  0  0  0
    5.6070   -1.9150   -0.8780 H   0  0  0  0  0  0  0  0  0  0  0  0
    5.3450   -1.6320    0.8200 H   0  0  0  0  0  0  0  0  0  0  0  0
   -1.8550   -0.7680    1.7960 C   0  0  0  0  0  0  0  0  0  0  0  0
   -0.8890   -0.7460    2.3060 H   0  0  0  0  0  0  0  0  0  0  0  0
   -2.2700   -1.7650    1.9770 H   0  0  0  0  0  0  0  0  0  0  0  0
   -2.4930   -0.0400    2.3060 H   0  0  0  0  0  0  0  0  0  0  0  0
   -3.9540   -2.4190   -0.4460 O   0  0  0  0  0  0  0  0  0  0  0  0
   -3.5720   -2.7790    0.3720 H   0  0  0  0  0  0  0  0  0  0  0  0
    2.7780   -0.8810    1.9460 C   0  0  0  0  0  0  0  0  0  0  0  0
    2.4860   -1.9330    2.0180 H   0  0  0  0  0  0  0  0  0  0  0  0
    2.1120   -0.3020    2.5950 H   0  0  0  0  0  0  0  0  0  0  0  0
    3.7800   -0.8140    2.3840 H   0  0  0  0  0  0  0  0  0  0  0  0
   -5.0540   -1.0300    1.1740 C   0  0  0  0  0  0  0  0  0  0  0  0
   -5.4110   -0.0350    1.4480 H   0  0  0  0  0  0  0  0  0  0  0  0
   -4.4110   -1.3990    1.9750 H   0  0  0  0  0  0  0  0  0  0  0  0
   -5.9200   -1.7040    1.1760 H   0  0  0  0  0  0  0  0  0  0  0  0
    7.6620   -0.0960   -2.3170 C   0  0  0  0  0  0  0  0  0  0  0  0
    7.2280    0.8390   -2.6810 H   0  0  0  0  0  0  0  0  0  0  0  0
    6.9920   -0.9410   -2.4860 H   0  0  0  0  0  0  0  0  0  0  0  0
    8.5750   -0.2830   -2.8920 H   0  0  0  0  0  0  0  0  0  0  0  0
   -7.6610    2.1020   -0.6590 C   0  0  0  0  0  0  0  0  0  0  0  0
   -7.0280    2.6400    0.0520 H   0  0  0  0  0  0  0  0  0  0  0  0
   -8.7000    2.1720   -0.3260 H   0  0  0  0  0  0  0  0  0  0  0  0
   -7.5850    2.5460   -1.6550 H   0  0  0  0  0  0  0  0  0  0  0  0
   -0.8940    0.9000   -1.1410 H   0  0  0  0  0  0  0  0  0  0  0  0
   -2.9230   -0.1300   -1.4480 H   0  0  0  0  0  0  0  0  0  0  0  0
    1.3350   -0.1670   -1.1610 H   0  0  0  0  0  0  0  0  0  0  0  0
    0.4360    0.7970    1.5900 H   0  0  0  0  0  0  0  0  0  0  0  0
    5.4450    0.5350   -1.3610 H   0  0  0  0  0  0  0  0  0  0  0  0
  1  4  1  0  0  0  0
  1  7  1  0  0  0  0
  1 10  1  0  0  0  0
  1 45  1  0  0  0  0
  2  3  1  0  0  0  0
  2  5  1  0  0  0  0
  2 23  1  0  0  0  0
  2 51  1  0  0  0  0
  3  8  2  0  0  0  0
  3 29  1  0  0  0  0
  4  6  1  0  0  0  0
  4 19  1  0  0  0  0
  4 67  1  0  0  0  0
  5  6  1  0  0  0  0
  5 16  1  0  0  0  0
  5 69  1  0  0  0  0
  6 13  1  0  0  0  0
  6 70  1  0  0  0  0
  7 22  1  0  0  0  0
  7 26  1  0  0  0  0
  7 68  1  0  0  0  0
  8  9  1  0  0  0  0
  8 13  1  0  0  0  0
 10 11  1  0  0  0  0
 10 12  1  0  0  0  0
 10 16  1  0  0  0  0
 13 14  1  0  0  0  0
 13 15  1  0  0  0  0
 16 17  1  0  0  0  0
 16 18  1  0  0  0  0
 19 20  1  0  0  0  0
 19 21  1  0  0  0  0
 19 26  1  0  0  0  0
 22 35  1  0  0  0  0
 22 49  1  0  0  0  0
 22 55  1  0  0  0  0
 23 24  1  0  0  0  0
 23 25  1  0  0  0  0
 23 42  1  0  0  0  0
 26 27  1  0  0  0  0
 26 28  1  0  0  0  0
 29 30  1  0  0  0  0
 29 31  1  0  0  0  0
 29 38  1  0  0  0  0
 32 34  1  0  0  0  0
 32 40  2  0  0  0  0
 32 59  1  0  0  0  0
 33 39  1  0  0  0  0
 33 41  2  0  0  0  0
 33 63  1  0  0  0  0
 34 38  1  0  0  0  0
 35 36  1  0  0  0  0
 35 37  1  0  0  0  0
 35 39  1  0  0  0  0
 38 42  1  0  0  0  0
 38 71  1  0  0  0  0
 42 43  1  0  0  0  0
 42 44  1  0  0  0  0
 45 46  1  0  0  0  0
 45 47  1  0  0  0  0
 45 48  1  0  0  0  0
 49 50  1  0  0  0  0
 51 52  1  0  0  0  0
 51 53  1  0  0  0  0
 51 54  1  0  0  0  0
 55 56  1  0  0  0  0
 55 57  1  0  0  0  0
 55 58  1  0  0  0  0
 59 60  1  0  0  0  0
 59 61  1  0  0  0  0
 59 62  1  0  0  0  0
 63 64  1  0  0  0  0
 63 65  1  0  0  0  0
 63 66  1  0  0  0  0
M  END
>  <IDNUMBER>
AO-774/41465368

>  <NAME>
2-[3-(acetyloxy)-10,13-dimethyl-2,3,4,7,8,9,10,11,12,13,14,15,16,17-tetradecahydro-1H-cyclopenta[a]phenanthren-17-yl]-2-hydroxypropyl acetate

>  <ADD_INFO>
http://www.specs.net/enter.php?specsid=AO-774/41465368

>  <H_ACCEPTORS>
5

>  <H_DONORS>
1

>  <ROTATABLE_BONDS>
6

>  <LOGP>
5.4000001

>  <LOGS>
-6.46

>  <TPSA>
72.830002

>  <PRICE>
N06

$$$$
AO-774/41465369
  MOE2011           3D

 62 66  0  0  1  0  0  0  0  0999 V2000
    1.0250   -1.7700    0.2020 C   0  0  1  0  0  0  0  0  0  0  0  0
    2.0280   -0.7150    0.7760 C   0  0  1  0  0  0  0  0  0  0  0  0
   -2.5200    0.0400    0.6970 C   0  0  2  0  0  0  0  0  0  0  0  0
    3.8180    0.8290   -0.3740 C   0  0  0  0  0  0  0  0  0  0  0  0
   -0.4120   -1.2570   -0.1650 C   0  0  3  0  0  0  0  0  0  0  0  0
    2.6270   -0.0850   -0.5210 C   0  0  1  0  0  0  0  0  0  0  0  0
    1.7920   -2.3780   -0.9820 C   0  0  0  0  0  0  0  0  0  0  0  0
    2.3710   -3.2530   -0.6590 H   0  0  0  0  0  0  0  0  0  0  0  0
    1.1270   -2.7520   -1.7660 H   0  0  0  0  0  0  0  0  0  0  0  0
   -0.9930   -0.3470    0.9490 C   0  0  3  0  0  0  0  0  0  0  0  0
    2.7210   -1.2750   -1.5170 C   0  0  2  0  0  0  0  0  0  0  0  0
    3.7480    2.1480   -0.1840 C   0  0  0  0  0  0  0  0  0  0  0  0
    2.8770    2.7740   -0.1000 H   0  0  0  0  0  0  0  0  0  0  0  0
   -2.9620   -0.2960   -0.7650 C   0  0  2  0  0  0  0  0  0  0  0  0
    1.3310    0.3070    1.6980 C   0  0  0  0  0  0  0  0  0  0  0  0
    1.1590   -0.1550    2.6800 H   0  0  0  0  0  0  0  0  0  0  0  0
    1.9890    1.1630    1.8900 H   0  0  0  0  0  0  0  0  0  0  0  0
    5.1140    2.6450   -0.0530 C   0  0  0  0  0  0  0  0  0  0  0  0
   -0.0190    0.8190    1.1980 C   0  0  0  0  0  0  0  0  0  0  0  0
    0.1120    1.4270    0.2970 H   0  0  0  0  0  0  0  0  0  0  0  0
   -0.4080    1.4820    1.9790 H   0  0  0  0  0  0  0  0  0  0  0  0
    5.9780    1.6030   -0.1710 O   0  0  0  0  0  0  0  0  0  0  0  0
   -2.8090    1.5340    1.0290 C   0  0  0  0  0  0  0  0  0  0  0  0
   -2.6600    1.7170    2.1000 H   0  0  0  0  0  0  0  0  0  0  0  0
   -2.1010    2.1790    0.4960 H   0  0  0  0  0  0  0  0  0  0  0  0
   -0.5940   -0.6460   -1.5720 C   0  0  0  0  0  0  0  0  0  0  0  0
    0.2270    0.0020   -1.8720 H   0  0  0  0  0  0  0  0  0  0  0  0
   -0.6040   -1.4650   -2.3030 H   0  0  0  0  0  0  0  0  0  0  0  0
    5.2380    0.4050   -0.4360 C   0  0  0  0  0  0  0  0  0  0  0  0
    5.5340    0.0550   -1.4270 H   0  0  0  0  0  0  0  0  0  0  0  0
    5.4980   -0.3390    0.3210 H   0  0  0  0  0  0  0  0  0  0  0  0
   -1.8850    0.1520   -1.7530 C   0  0  0  0  0  0  0  0  0  0  0  0
   -2.2300    0.0320   -2.7870 H   0  0  0  0  0  0  0  0  0  0  0  0
   -1.6690    1.2190   -1.6280 H   0  0  0  0  0  0  0  0  0  0  0  0
    0.8300   -2.7950    1.1890 O   0  0  0  0  0  0  0  0  0  0  0  0
    0.3500   -3.5290    0.7710 H   0  0  0  0  0  0  0  0  0  0  0  0
   -4.3380    0.2740   -1.1470 C   0  0  0  0  0  0  0  0  0  0  0  0
   -5.1250   -0.2940   -0.6340 H   0  0  0  0  0  0  0  0  0  0  0  0
   -4.5360    0.1110   -2.2150 H   0  0  0  0  0  0  0  0  0  0  0  0
    5.4150    3.8080    0.1430 O   0  0  0  0  0  0  0  0  0  0  0  0
    3.1450   -1.3840    1.6240 C   0  0  0  0  0  0  0  0  0  0  0  0
    3.8430   -0.6370    2.0180 H   0  0  0  0  0  0  0  0  0  0  0  0
    3.7230   -2.1150    1.0520 H   0  0  0  0  0  0  0  0  0  0  0  0
    2.7310   -1.9050    2.4950 H   0  0  0  0  0  0  0  0  0  0  0  0
    4.0320   -1.8150   -1.6180 O   0  0  0  0  0  0  0  0  0  0  0  0
    3.9990   -2.5600   -2.2440 H   0  0  0  0  0  0  0  0  0  0  0  0
   -4.2080    2.0130    0.6500 C   0  0  0  0  0  0  0  0  0  0  0  0
   -4.2960    3.0870    0.8560 H   0  0  0  0  0  0  0  0  0  0  0  0
   -4.9690    1.5370    1.2800 H   0  0  0  0  0  0  0  0  0  0  0  0
   -4.4990    1.7520   -0.8210 C   0  0  2  0  0  0  0  0  0  0  0  0
   -3.3700   -0.8390    1.6570 C   0  0  0  0  0  0  0  0  0  0  0  0
   -4.4450   -0.6800    1.5330 H   0  0  0  0  0  0  0  0  0  0  0  0
   -3.1290   -0.6210    2.7040 H   0  0  0  0  0  0  0  0  0  0  0  0
   -3.1780   -1.9040    1.4870 H   0  0  0  0  0  0  0  0  0  0  0  0
   -5.8370    2.1350   -1.1200 O   0  0  0  0  0  0  0  0  0  0  0  0
   -5.9370    3.0730   -0.8830 H   0  0  0  0  0  0  0  0  0  0  0  0
   -3.0590   -1.3860   -0.8690 H   0  0  0  0  0  0  0  0  0  0  0  0
   -1.0490   -2.1550   -0.1650 H   0  0  0  0  0  0  0  0  0  0  0  0
    1.8490    0.5710   -0.9240 H   0  0  0  0  0  0  0  0  0  0  0  0
   -0.9730   -0.9380    1.8770 H   0  0  0  0  0  0  0  0  0  0  0  0
    2.4200   -0.9510   -2.5200 H   0  0  0  0  0  0  0  0  0  0  0  0
   -3.8340    2.3510   -1.4530 H   0  0  0  0  0  0  0  0  0  0  0  0
  1  2  1  0  0  0  0
  1  5  1  0  0  0  0
  1  7  1  0  0  0  0
  1 35  1  0  0  0  0
  2  6  1  0  0  0  0
  2 15  1  0  0  0  0
  2 41  1  0  0  0  0
  3 10  1  0  0  0  0
  3 14  1  0  0  0  0
  3 23  1  0  0  0  0
  3 51  1  0  0  0  0
  4  6  1  0  0  0  0
  4 12  2  0  0  0  0
  4 29  1  0  0  0  0
  5 10  1  0  0  0  0
  5 26  1  0  0  0  0
  5 58  1  0  0  0  0
  6 11  1  0  0  0  0
  6 59  1  0  0  0  0
  7  8  1  0  0  0  0
  7  9  1  0  0  0  0
  7 11  1  0  0  0  0
 10 19  1  0  0  0  0
 10 60  1  0  0  0  0
 11 45  1  0  0  0  0
 11 61  1  0  0  0  0
 12 13  1  0  0  0  0
 12 18  1  0  0  0  0
 14 32  1  0  0  0  0
 14 37  1  0  0  0  0
 14 57  1  0  0  0  0
 15 16  1  0  0  0  0
 15 17  1  0  0  0  0
 15 19  1  0  0  0  0
 18 22  1  0  0  0  0
 18 40  2  0  0  0  0
 19 20  1  0  0  0  0
 19 21  1  0  0  0  0
 22 29  1  0  0  0  0
 23 24  1  0  0  0  0
 23 25  1  0  0  0  0
 23 47  1  0  0  0  0
 26 27  1  0  0  0  0
 26 28  1  0  0  0  0
 26 32  1  0  0  0  0
 29 30  1  0  0  0  0
 29 31  1  0  0  0  0
 32 33  1  0  0  0  0
 32 34  1  0  0  0  0
 35 36  1  0  0  0  0
 37 38  1  0  0  0  0
 37 39  1  0  0  0  0
 37 50  1  0  0  0  0
 41 42  1  0  0  0  0
 41 43  1  0  0  0  0
 41 44  1  0  0  0  0
 45 46  1  0  0  0  0
 47 48  1  0  0  0  0
 47 49  1  0  0  0  0
 47 50  1  0  0  0  0
 50 55  1  0  0  0  0
 50 62  1  0  0  0  0
 51 52  1  0  0  0  0
 51 53  1  0  0  0  0
 51 54  1  0  0  0  0
 55 56  1  0  0  0  0
M  END
>  <IDNUMBER>
AO-774/41465369

>  <NAME>
Gitoxigenin

>  <ADD_INFO>
http://www.specs.net/enter.php?specsid=AO-774/41465369

>  <H_ACCEPTORS>
5

>  <H_DONORS>
3

>  <ROTATABLE_BONDS>
1

>  <LOGP>
2.1700001

>  <LOGS>
-3.9000001

>  <TPSA>
86.989998

>  <PRICE>
N06

$$$$
AO-774/41465371
  MOE2011           3D

 83 88  0  0  1  0  0  0  0  0999 V2000
    2.9780   -0.6600    0.2580 C   0  0  1  0  0  0  0  0  0  0  0  0
    0.1220    1.8890    0.0950 C   0  0  1  0  0  0  0  0  0  0  0  0
    4.2600    0.2610    0.2550 C   0  0  1  0  0  0  0  0  0  0  0  0
   -0.7140    0.9640   -0.7500 C   0  0  1  0  0  0  0  0  0  0  0  0
    1.5370    1.4260   -0.1950 C   0  0  2  0  0  0  0  0  0  0  0  0
    1.6770    0.0920    0.6140 C   0  0  1  0  0  0  0  0  0  0  0  0
    6.6570   -0.7460   -0.2390 C   0  0  0  0  0  0  0  0  0  0  0  0
    5.2590   -0.4880   -0.7220 C   0  0  1  0  0  0  0  0  0  0  0  0
   -4.4290    0.0910   -0.1270 C   0  0  2  0  0  0  0  0  0  0  0  0
   -4.0920   -1.2910   -0.0610 O   0  0  0  0  0  0  0  0  0  0  0  0
   -5.9150    0.3780    0.1320 C   0  0  0  0  0  0  0  0  0  0  0  0
   -5.9960    1.3160    0.6940 H   0  0  0  0  0  0  0  0  0  0  0  0
   -6.4400    0.5600   -0.8150 H   0  0  0  0  0  0  0  0  0  0  0  0
    7.1910   -1.8660    0.2480 C   0  0  0  0  0  0  0  0  0  0  0  0
    6.7290   -2.8200    0.4290 H   0  0  0  0  0  0  0  0  0  0  0  0
   -6.4680   -2.0110   -0.0340 C   0  0  1  0  0  0  0  0  0  0  0  0
    8.5990   -1.5870    0.5340 C   0  0  0  0  0  0  0  0  0  0  0  0
   -6.5830   -0.7720    0.8700 C   0  0  1  0  0  0  0  0  0  0  0  0
   -5.0380   -2.2240   -0.5740 C   0  0  1  0  0  0  0  0  0  0  0  0
    3.0200   -1.3300   -1.1170 C   0  0  0  0  0  0  0  0  0  0  0  0
    2.3900   -2.2230   -1.1820 H   0  0  0  0  0  0  0  0  0  0  0  0
    2.7410   -0.6450   -1.9240 H   0  0  0  0  0  0  0  0  0  0  0  0
    3.9910    1.6830   -0.3450 C   0  0  0  0  0  0  0  0  0  0  0  0
    4.8410    2.3450   -0.1350 H   0  0  0  0  0  0  0  0  0  0  0  0
    3.9280    1.6230   -1.4400 H   0  0  0  0  0  0  0  0  0  0  0  0
   -1.5100    0.0120   -1.5940 C   0  0  0  0  0  0  0  0  0  0  0  0
   -1.2160   -0.1490   -2.6470 H   0  0  0  0  0  0  0  0  0  0  0  0
   -1.9290   -0.9650   -1.3350 H   0  0  0  0  0  0  0  0  0  0  0  0
   -0.8600    3.1400   -0.3250 C   0  0  0  0  0  0  0  0  0  0  0  0
   -0.9610    3.9190    0.4390 H   0  0  0  0  0  0  0  0  0  0  0  0
   -0.4900    3.6750   -1.2120 H   0  0  0  0  0  0  0  0  0  0  0  0
    2.7000    2.3510    0.1370 C   0  0  0  0  0  0  0  0  0  0  0  0
    2.5720    3.3110   -0.3750 H   0  0  0  0  0  0  0  0  0  0  0  0
    2.7700    2.5600    1.2090 H   0  0  0  0  0  0  0  0  0  0  0  0
    8.8710   -0.2970    0.1970 O   0  0  0  0  0  0  0  0  0  0  0  0
    4.4900   -1.7200   -1.2400 C   0  0  0  0  0  0  0  0  0  0  0  0
    4.7550   -1.9570   -2.2760 H   0  0  0  0  0  0  0  0  0  0  0  0
    4.6870   -2.6150   -0.6390 H   0  0  0  0  0  0  0  0  0  0  0  0
    0.3510   -0.7780    0.6470 C   0  0  0  0  0  0  0  0  0  0  0  0
    0.4120   -1.5340   -0.1450 H   0  0  0  0  0  0  0  0  0  0  0  0
    0.3060   -1.3290    1.5940 H   0  0  0  0  0  0  0  0  0  0  0  0
   -1.0340   -0.0080    0.4460 C   0  0  0  0  0  0  0  0  0  0  0  0
   -1.4090    0.4960    1.3400 H   0  0  0  0  0  0  0  0  0  0  0  0
   -1.7820   -0.8050    0.4070 H   0  0  0  0  0  0  0  0  0  0  0  0
    7.6880    0.3170   -0.3170 C   0  0  0  0  0  0  0  0  0  0  0  0
    7.4480    1.1890    0.2950 H   0  0  0  0  0  0  0  0  0  0  0  0
    7.8740    0.6340   -1.3480 H   0  0  0  0  0  0  0  0  0  0  0  0
    0.1040    2.1760    1.6470 C   0  0  0  0  0  0  0  0  0  0  0  0
   -0.0510    1.3350    2.3390 H   0  0  0  0  0  0  0  0  0  0  0  0
   -4.0960    0.6600   -1.3860 O   0  0  0  0  0  0  0  0  0  0  0  0
   -2.7800    1.1740   -1.5580 C   0  0  1  0  0  0  0  0  0  0  0  0
    9.3900   -2.3890    0.9960 O   0  0  0  0  0  0  0  0  0  0  0  0
    3.1530   -1.7010    1.2340 O   0  0  0  0  0  0  0  0  0  0  0  0
    2.4420   -2.3540    1.1220 H   0  0  0  0  0  0  0  0  0  0  0  0
   -0.6300    1.6790   -2.0050 O   0  0  0  0  0  0  0  0  0  0  0  0
    0.1650    1.4040   -2.4980 H   0  0  0  0  0  0  0  0  0  0  0  0
    0.3890    3.2640    2.1490 O   0  0  0  0  0  0  0  0  0  0  0  0
   -2.4670    2.5810   -0.6040 C   0  0  0  0  0  0  0  0  0  0  0  0
   -3.0280    3.4070   -1.0590 H   0  0  0  0  0  0  0  0  0  0  0  0
   -2.9050    2.4220    0.3870 H   0  0  0  0  0  0  0  0  0  0  0  0
   -6.9300   -3.1700    0.6660 O   0  0  0  0  0  0  0  0  0  0  0  0
   -6.9080   -3.9220    0.0510 H   0  0  0  0  0  0  0  0  0  0  0  0
    4.8000    0.4430    1.6910 C   0  0  0  0  0  0  0  0  0  0  0  0
    5.6420    1.1410    1.7220 H   0  0  0  0  0  0  0  0  0  0  0  0
    5.1410   -0.5020    2.1270 H   0  0  0  0  0  0  0  0  0  0  0  0
    4.0300    0.8470    2.3570 H   0  0  0  0  0  0  0  0  0  0  0  0
   -5.9380   -0.9940    2.1310 O   0  0  0  0  0  0  0  0  0  0  0  0
   -5.0000   -2.2340   -2.1020 C   0  0  0  0  0  0  0  0  0  0  0  0
   -5.5930   -3.0630   -2.5010 H   0  0  0  0  0  0  0  0  0  0  0  0
   -3.9700   -2.3380   -2.4600 H   0  0  0  0  0  0  0  0  0  0  0  0
   -5.3930   -1.3030   -2.5230 H   0  0  0  0  0  0  0  0  0  0  0  0
   -6.4640   -0.1880    3.1770 C   0  0  0  0  0  0  0  0  0  0  0  0
   -5.9120   -0.4130    4.0930 H   0  0  0  0  0  0  0  0  0  0  0  0
   -7.5210   -0.4190    3.3430 H   0  0  0  0  0  0  0  0  0  0  0  0
   -6.3410    0.8750    2.9510 H   0  0  0  0  0  0  0  0  0  0  0  0
    1.6440    1.1890   -1.2590 H   0  0  0  0  0  0  0  0  0  0  0  0
    1.8160    0.3690    1.6700 H   0  0  0  0  0  0  0  0  0  0  0  0
    5.3930    0.1340   -1.6210 H   0  0  0  0  0  0  0  0  0  0  0  0
   -3.8590    0.5750    0.6700 H   0  0  0  0  0  0  0  0  0  0  0  0
   -7.1600   -1.8820   -0.8760 H   0  0  0  0  0  0  0  0  0  0  0  0
   -7.6470   -0.5670    1.0420 H   0  0  0  0  0  0  0  0  0  0  0  0
   -4.6790   -3.2080   -0.2480 H   0  0  0  0  0  0  0  0  0  0  0  0
   -2.8140    1.5660   -2.5880 H   0  0  0  0  0  0  0  0  0  0  0  0
  1  3  1  0  0  0  0
  1  6  1  0  0  0  0
  1 20  1  0  0  0  0
  1 53  1  0  0  0  0
  2  4  1  0  0  0  0
  2  5  1  0  0  0  0
  2 29  1  0  0  0  0
  2 48  1  0  0  0  0
  3  8  1  0  0  0  0
  3 23  1  0  0  0  0
  3 63  1  0  0  0  0
  4 26  1  0  0  0  0
  4 42  1  0  0  0  0
  4 55  1  0  0  0  0
  5  6  1  0  0  0  0
  5 32  1  0  0  0  0
  5 76  1  0  0  0  0
  6 39  1  0  0  0  0
  6 77  1  0  0  0  0
  7  8  1  0  0  0  0
  7 14  2  0  0  0  0
  7 45  1  0  0  0  0
  8 36  1  0  0  0  0
  8 78  1  0  0  0  0
  9 10  1  0  0  0  0
  9 11  1  0  0  0  0
  9 50  1  0  0  0  0
  9 79  1  0  0  0  0
 10 19  1  0  0  0  0
 11 12  1  0  0  0  0
 11 13  1  0  0  0  0
 11 18  1  0  0  0  0
 14 15  1  0  0  0  0
 14 17  1  0  0  0  0
 16 18  1  0  0  0  0
 16 19  1  0  0  0  0
 16 61  1  0  0  0  0
 16 80  1  0  0  0  0
 17 35  1  0  0  0  0
 17 52  2  0  0  0  0
 18 67  1  0  0  0  0
 18 81  1  0  0  0  0
 19 68  1  0  0  0  0
 19 82  1  0  0  0  0
 20 21  1  0  0  0  0
 20 22  1  0  0  0  0
 20 36  1  0  0  0  0
 23 24  1  0  0  0  0
 23 25  1  0  0  0  0
 23 32  1  0  0  0  0
 26 27  1  0  0  0  0
 26 28  1  0  0  0  0
 26 51  1  0  0  0  0
 29 30  1  0  0  0  0
 29 31  1  0  0  0  0
 29 58  1  0  0  0  0
 32 33  1  0  0  0  0
 32 34  1  0  0  0  0
 35 45  1  0  0  0  0
 36 37  1  0  0  0  0
 36 38  1  0  0  0  0
 39 40  1  0  0  0  0
 39 41  1  0  0  0  0
 39 42  1  0  0  0  0
 42 43  1  0  0  0  0
 42 44  1  0  0  0  0
 45 46  1  0  0  0  0
 45 47  1  0  0  0  0
 48 49  1  0  0  0  0
 48 57  2  0  0  0  0
 50 51  1  0  0  0  0
 51 58  1  0  0  0  0
 51 83  1  0  0  0  0
 53 54  1  0  0  0  0
 55 56  1  0  0  0  0
 58 59  1  0  0  0  0
 58 60  1  0  0  0  0
 61 62  1  0  0  0  0
 63 64  1  0  0  0  0
 63 65  1  0  0  0  0
 63 66  1  0  0  0  0
 67 72  1  0  0  0  0
 68 69  1  0  0  0  0
 68 70  1  0  0  0  0
 68 71  1  0  0  0  0
 72 73  1  0  0  0  0
 72 74  1  0  0  0  0
 72 75  1  0  0  0  0
M  END
>  <IDNUMBER>
AO-774/41465371

>  <NAME>
Cymarin

>  <ADD_INFO>
http://www.specs.net/enter.php?specsid=AO-774/41465371

>  <H_ACCEPTORS>
9

>  <H_DONORS>
3

>  <ROTATABLE_BONDS>
5

>  <LOGP>
0.47999999

>  <LOGS>
-3.6099999

>  <TPSA>
131.75

>  <PRICE>
N06

$$$$
AO-774/41465372
  MOE2011           3D

144151  0  0  1  0  0  0  0  0999 V2000
    8.3030    0.3450   -0.8690 C   0  0  1  0  0  0  0  0  0  0  0  0
    8.8070   -0.6580    0.2140 C   0  0  2  0  0  0  0  0  0  0  0  0
    5.8910   -0.5900   -0.6610 C   0  0  2  0  0  0  0  0  0  0  0  0
    4.5800   -1.0660   -1.3940 C   0  0  2  0  0  0  0  0  0  0  0  0
    7.0110   -0.1110   -1.6150 C   0  0  1  0  0  0  0  0  0  0  0  0
    7.6090   -1.0750    1.1340 C   0  0  1  0  0  0  0  0  0  0  0  0
    9.8120    0.2020    1.0660 C   0  0  1  0  0  0  0  0  0  0  0  0
   11.2940    0.0900    0.7950 C   0  0  0  0  0  0  0  0  0  0  0  0
   -2.6030    2.0770   -1.2510 C   0  0  2  0  0  0  0  0  0  0  0  0
   -6.6850    2.4560    1.8560 C   0  0  2  0  0  0  0  0  0  0  0  0
   -8.7540   -1.7570   -0.9250 C   0  0  2  0  0  0  0  0  0  0  0  0
   -7.6550    1.8740    0.8080 C   0  0  1  0  0  0  0  0  0  0  0  0
   -2.8750    1.1820   -0.0270 C   0  0  1  0  0  0  0  0  0  0  0  0
   -8.5230   -2.9520    0.0120 C   0  0  1  0  0  0  0  0  0  0  0  0
   -4.9530    0.8070    1.1010 C   0  0  2  0  0  0  0  0  0  0  0  0
   -8.7260   -0.3820    1.1790 C   0  0  2  0  0  0  0  0  0  0  0  0
    6.4370   -1.6360    0.3240 C   0  0  0  0  0  0  0  0  0  0  0  0
    6.7450   -2.5510   -0.1920 H   0  0  0  0  0  0  0  0  0  0  0  0
    5.6490   -1.9600    1.0110 H   0  0  0  0  0  0  0  0  0  0  0  0
   -0.1730    1.4660   -1.0450 C   0  0  2  0  0  0  0  0  0  0  0  0
   -5.7700    0.4570   -0.0130 O   0  0  0  0  0  0  0  0  0  0  0  0
   -7.5080   -1.0990    1.3000 O   0  0  0  0  0  0  0  0  0  0  0  0
   -9.4260   -0.6160   -0.1600 C   0  0  0  0  0  0  0  0  0  0  0  0
  -10.4840   -0.8510    0.0240 H   0  0  0  0  0  0  0  0  0  0  0  0
   -9.4830    0.2870   -0.7770 H   0  0  0  0  0  0  0  0  0  0  0  0
   -5.7180    1.3670    2.2980 C   0  0  0  0  0  0  0  0  0  0  0  0
   -6.2710    0.5700    2.8070 H   0  0  0  0  0  0  0  0  0  0  0  0
   -5.0230    1.7740    3.0440 H   0  0  0  0  0  0  0  0  0  0  0  0
   -0.5250    0.5740    0.0130 O   0  0  0  0  0  0  0  0  0  0  0  0
   -1.3580    1.6110   -1.9990 C   0  0  0  0  0  0  0  0  0  0  0  0
   -1.0960    2.3100   -2.8030 H   0  0  0  0  0  0  0  0  0  0  0  0
   -1.5630    0.6430   -2.4730 H   0  0  0  0  0  0  0  0  0  0  0  0
   12.1910   -0.3980    1.6540 C   0  0  0  0  0  0  0  0  0  0  0  0
   12.0340   -0.8010    2.6390 H   0  0  0  0  0  0  0  0  0  0  0  0
    4.1020   -0.0020   -2.4390 C   0  0  1  0  0  0  0  0  0  0  0  0
    8.1690    1.6620   -0.0890 C   0  0  0  0  0  0  0  0  0  0  0  0
    8.2480    2.5430   -0.7350 H   0  0  0  0  0  0  0  0  0  0  0  0
    7.2160    1.7320    0.4450 H   0  0  0  0  0  0  0  0  0  0  0  0
   -1.5940    1.0760    0.8210 C   0  0  2  0  0  0  0  0  0  0  0  0
   -7.6180   -2.5220    1.1840 C   0  0  2  0  0  0  0  0  0  0  0  0
   -6.8190    1.3550   -0.3820 C   0  0  2  0  0  0  0  0  0  0  0  0
   13.5080   -0.2720    1.0340 C   0  0  0  0  0  0  0  0  0  0  0  0
   -3.9430    1.7510    0.7400 O   0  0  0  0  0  0  0  0  0  0  0  0
   -8.5710    0.9970    1.4890 O   0  0  0  0  0  0  0  0  0  0  0  0
   -9.8210   -3.3320    0.5570 O   0  0  0  0  0  0  0  0  0  0  0  0
    8.0480   -2.0670    2.0890 O   0  0  0  0  0  0  0  0  0  0  0  0
   -2.3810    3.4350   -0.8030 O   0  0  0  0  0  0  0  0  0  0  0  0
   -9.6180   -2.1300   -2.0240 O   0  0  0  0  0  0  0  0  0  0  0  0
   -7.3730    2.9530    3.0220 O   0  0  0  0  0  0  0  0  0  0  0  0
   13.3680    0.3090   -0.1870 O   0  0  0  0  0  0  0  0  0  0  0  0
    9.3140    1.6600    0.9270 C   0  0  0  0  0  0  0  0  0  0  0  0
    8.9510    2.0340    1.8920 H   0  0  0  0  0  0  0  0  0  0  0  0
   10.1010    2.3510    0.6090 H   0  0  0  0  0  0  0  0  0  0  0  0
    3.4750   -1.3010   -0.3140 C   0  0  0  0  0  0  0  0  0  0  0  0
    3.4290   -2.3590   -0.0280 H   0  0  0  0  0  0  0  0  0  0  0  0
    3.7130   -0.7530    0.6080 H   0  0  0  0  0  0  0  0  0  0  0  0
    6.4630    0.9840   -2.5510 C   0  0  0  0  0  0  0  0  0  0  0  0
    6.2020    1.8810   -1.9780 H   0  0  0  0  0  0  0  0  0  0  0  0
    7.2280    1.2860   -3.2750 H   0  0  0  0  0  0  0  0  0  0  0  0
  -10.1440   -4.5750    0.9830 C   0  0  0  0  0  0  0  0  0  0  0  0
    7.2780   -2.2100    3.2070 C   0  0  0  0  0  0  0  0  0  0  0  0
   -2.8660    4.4290   -1.5970 C   0  0  0  0  0  0  0  0  0  0  0  0
   -9.1710   -2.5170   -3.2440 C   0  0  0  0  0  0  0  0  0  0  0  0
   -7.9820    4.1630    2.8780 C   0  0  0  0  0  0  0  0  0  0  0  0
   11.9780    0.5490   -0.4400 C   0  0  0  0  0  0  0  0  0  0  0  0
   11.8450    1.6170   -0.6290 H   0  0  0  0  0  0  0  0  0  0  0  0
   11.7040   -0.0200   -1.3280 H   0  0  0  0  0  0  0  0  0  0  0  0
    0.9290    0.9720   -1.8130 O   0  0  0  0  0  0  0  0  0  0  0  0
    3.3380    1.1520   -1.7650 C   0  0  0  0  0  0  0  0  0  0  0  0
    3.0620    1.9070   -2.5120 H   0  0  0  0  0  0  0  0  0  0  0  0
    3.9980    1.6520   -1.0470 H   0  0  0  0  0  0  0  0  0  0  0  0
    5.2420    0.5120   -3.3290 C   0  0  0  0  0  0  0  0  0  0  0  0
    5.5510   -0.2850   -4.0170 H   0  0  0  0  0  0  0  0  0  0  0  0
    4.8810    1.3300   -3.9640 H   0  0  0  0  0  0  0  0  0  0  0  0
    9.3390    0.5290   -1.8430 O   0  0  0  0  0  0  0  0  0  0  0  0
    9.1140    1.2920   -2.4010 H   0  0  0  0  0  0  0  0  0  0  0  0
   14.5570   -0.6220    1.5440 O   0  0  0  0  0  0  0  0  0  0  0  0
    2.0810    0.6680   -1.0190 C   0  0  2  0  0  0  0  0  0  0  0  0
   -3.4530    4.2740   -2.6580 O   0  0  0  0  0  0  0  0  0  0  0  0
    6.2650   -1.5760    3.4710 O   0  0  0  0  0  0  0  0  0  0  0  0
   -7.9890    4.8390    1.8580 O   0  0  0  0  0  0  0  0  0  0  0  0
   -9.9560   -2.8260   -4.1350 O   0  0  0  0  0  0  0  0  0  0  0  0
  -11.2340   -4.8000    1.4990 O   0  0  0  0  0  0  0  0  0  0  0  0
    9.4670   -1.9190   -0.3870 C   0  0  0  0  0  0  0  0  0  0  0  0
    9.8830   -2.5620    0.3950 H   0  0  0  0  0  0  0  0  0  0  0  0
   10.2820   -1.6820   -1.0760 H   0  0  0  0  0  0  0  0  0  0  0  0
    8.7560   -2.5160   -0.9640 H   0  0  0  0  0  0  0  0  0  0  0  0
    2.0960   -0.8420   -0.7580 C   0  0  0  0  0  0  0  0  0  0  0  0
    1.3650   -1.0920    0.0190 H   0  0  0  0  0  0  0  0  0  0  0  0
    1.7730   -1.3960   -1.6480 H   0  0  0  0  0  0  0  0  0  0  0  0
    4.8050   -2.4010   -2.1460 C   0  0  0  0  0  0  0  0  0  0  0  0
    3.8960   -2.7040   -2.6800 H   0  0  0  0  0  0  0  0  0  0  0  0
    5.0530   -3.2200   -1.4640 H   0  0  0  0  0  0  0  0  0  0  0  0
    5.6090   -2.3320   -2.8840 H   0  0  0  0  0  0  0  0  0  0  0  0
   -6.1930   -3.0310    0.9870 C   0  0  0  0  0  0  0  0  0  0  0  0
   -6.1590   -4.1230    0.9350 H   0  0  0  0  0  0  0  0  0  0  0  0
   -5.5520   -2.7020    1.8130 H   0  0  0  0  0  0  0  0  0  0  0  0
   -5.7550   -2.6230    0.0690 H   0  0  0  0  0  0  0  0  0  0  0  0
   -1.7440    0.1240    2.0020 C   0  0  0  0  0  0  0  0  0  0  0  0
   -2.4850    0.4840    2.7200 H   0  0  0  0  0  0  0  0  0  0  0  0
   -0.7870    0.0130    2.5240 H   0  0  0  0  0  0  0  0  0  0  0  0
   -2.0330   -0.8770    1.6640 H   0  0  0  0  0  0  0  0  0  0  0  0
   -6.2710    2.4930   -1.2460 C   0  0  0  0  0  0  0  0  0  0  0  0
   -7.0800    3.1370   -1.6040 H   0  0  0  0  0  0  0  0  0  0  0  0
   -5.7560    2.0820   -2.1200 H   0  0  0  0  0  0  0  0  0  0  0  0
   -5.5500    3.1170   -0.7140 H   0  0  0  0  0  0  0  0  0  0  0  0
    7.8660   -3.2670    4.0900 C   0  0  0  0  0  0  0  0  0  0  0  0
    8.8480   -2.9460    4.4460 H   0  0  0  0  0  0  0  0  0  0  0  0
    7.9430   -4.2090    3.5410 H   0  0  0  0  0  0  0  0  0  0  0  0
    7.2120   -3.4230    4.9530 H   0  0  0  0  0  0  0  0  0  0  0  0
   -7.6880   -2.5480   -3.4650 C   0  0  0  0  0  0  0  0  0  0  0  0
   -7.1980   -3.1850   -2.7260 H   0  0  0  0  0  0  0  0  0  0  0  0
   -7.2820   -1.5340   -3.4540 H   0  0  0  0  0  0  0  0  0  0  0  0
   -7.4860   -2.9790   -4.4500 H   0  0  0  0  0  0  0  0  0  0  0  0
   -8.6600    4.5510    4.1550 C   0  0  0  0  0  0  0  0  0  0  0  0
   -9.4480    3.8320    4.3900 H   0  0  0  0  0  0  0  0  0  0  0  0
   -9.1110    5.5410    4.0390 H   0  0  0  0  0  0  0  0  0  0  0  0
   -7.9260    4.5980    4.9640 H   0  0  0  0  0  0  0  0  0  0  0  0
   -9.1240   -5.6570    0.7970 C   0  0  0  0  0  0  0  0  0  0  0  0
   -8.2040   -5.4160    1.3310 H   0  0  0  0  0  0  0  0  0  0  0  0
   -8.9400   -5.8290   -0.2660 H   0  0  0  0  0  0  0  0  0  0  0  0
   -9.5150   -6.5880    1.2200 H   0  0  0  0  0  0  0  0  0  0  0  0
   -2.5730    5.7610   -0.9780 C   0  0  0  0  0  0  0  0  0  0  0  0
   -3.0260    5.8160    0.0150 H   0  0  0  0  0  0  0  0  0  0  0  0
   -3.0020    6.5520   -1.6000 H   0  0  0  0  0  0  0  0  0  0  0  0
   -1.4920    5.9110   -0.9180 H   0  0  0  0  0  0  0  0  0  0  0  0
    7.3040   -0.9540   -2.2570 H   0  0  0  0  0  0  0  0  0  0  0  0
    5.6000    0.2810   -0.0560 H   0  0  0  0  0  0  0  0  0  0  0  0
    3.3860   -0.4780   -3.1250 H   0  0  0  0  0  0  0  0  0  0  0  0
    7.2630   -0.1970    1.6960 H   0  0  0  0  0  0  0  0  0  0  0  0
    9.6830   -0.0740    2.1220 H   0  0  0  0  0  0  0  0  0  0  0  0
   -3.4740    2.0370   -1.9120 H   0  0  0  0  0  0  0  0  0  0  0  0
   -6.0990    3.2820    1.4330 H   0  0  0  0  0  0  0  0  0  0  0  0
   -7.7930   -1.4010   -1.3050 H   0  0  0  0  0  0  0  0  0  0  0  0
   -8.3020    2.6790    0.4420 H   0  0  0  0  0  0  0  0  0  0  0  0
   -3.1430    0.1860   -0.4070 H   0  0  0  0  0  0  0  0  0  0  0  0
   -8.1170   -3.7960   -0.5530 H   0  0  0  0  0  0  0  0  0  0  0  0
   -4.4660   -0.1160    1.4340 H   0  0  0  0  0  0  0  0  0  0  0  0
   -9.3890   -0.7630    1.9660 H   0  0  0  0  0  0  0  0  0  0  0  0
    0.1140    2.4400   -0.6290 H   0  0  0  0  0  0  0  0  0  0  0  0
   -1.3130    2.0570    1.2270 H   0  0  0  0  0  0  0  0  0  0  0  0
   -7.9990   -2.9060    2.1370 H   0  0  0  0  0  0  0  0  0  0  0  0
   -7.4590    0.7870   -1.0540 H   0  0  0  0  0  0  0  0  0  0  0  0
    2.0360    1.2150   -0.0670 H   0  0  0  0  0  0  0  0  0  0  0  0
  1  2  1  0  0  0  0
  1  5  1  0  0  0  0
  1 36  1  0  0  0  0
  1 75  1  0  0  0  0
  2  6  1  0  0  0  0
  2  7  1  0  0  0  0
  2 84  1  0  0  0  0
  3  4  1  0  0  0  0
  3  5  1  0  0  0  0
  3 17  1  0  0  0  0
  3128  1  0  0  0  0
  4 35  1  0  0  0  0
  4 54  1  0  0  0  0
  4 91  1  0  0  0  0
  5 57  1  0  0  0  0
  5127  1  0  0  0  0
  6 17  1  0  0  0  0
  6 46  1  0  0  0  0
  6130  1  0  0  0  0
  7  8  1  0  0  0  0
  7 51  1  0  0  0  0
  7131  1  0  0  0  0
  8 33  2  0  0  0  0
  8 65  1  0  0  0  0
  9 13  1  0  0  0  0
  9 30  1  0  0  0  0
  9 47  1  0  0  0  0
  9132  1  0  0  0  0
 10 12  1  0  0  0  0
 10 26  1  0  0  0  0
 10 49  1  0  0  0  0
 10133  1  0  0  0  0
 11 14  1  0  0  0  0
 11 23  1  0  0  0  0
 11 48  1  0  0  0  0
 11134  1  0  0  0  0
 12 41  1  0  0  0  0
 12 44  1  0  0  0  0
 12135  1  0  0  0  0
 13 39  1  0  0  0  0
 13 43  1  0  0  0  0
 13136  1  0  0  0  0
 14 40  1  0  0  0  0
 14 45  1  0  0  0  0
 14137  1  0  0  0  0
 15 21  1  0  0  0  0
 15 26  1  0  0  0  0
 15 43  1  0  0  0  0
 15138  1  0  0  0  0
 16 22  1  0  0  0  0
 16 23  1  0  0  0  0
 16 44  1  0  0  0  0
 16139  1  0  0  0  0
 17 18  1  0  0  0  0
 17 19  1  0  0  0  0
 20 29  1  0  0  0  0
 20 30  1  0  0  0  0
 20 68  1  0  0  0  0
 20140  1  0  0  0  0
 21 41  1  0  0  0  0
 22 40  1  0  0  0  0
 23 24  1  0  0  0  0
 23 25  1  0  0  0  0
 26 27  1  0  0  0  0
 26 28  1  0  0  0  0
 29 39  1  0  0  0  0
 30 31  1  0  0  0  0
 30 32  1  0  0  0  0
 33 34  1  0  0  0  0
 33 42  1  0  0  0  0
 35 69  1  0  0  0  0
 35 72  1  0  0  0  0
 35129  1  0  0  0  0
 36 37  1  0  0  0  0
 36 38  1  0  0  0  0
 36 51  1  0  0  0  0
 39 99  1  0  0  0  0
 39141  1  0  0  0  0
 40 95  1  0  0  0  0
 40142  1  0  0  0  0
 41103  1  0  0  0  0
 41143  1  0  0  0  0
 42 50  1  0  0  0  0
 42 77  2  0  0  0  0
 45 60  1  0  0  0  0
 46 61  1  0  0  0  0
 47 62  1  0  0  0  0
 48 63  1  0  0  0  0
 49 64  1  0  0  0  0
 50 65  1  0  0  0  0
 51 52  1  0  0  0  0
 51 53  1  0  0  0  0
 54 55  1  0  0  0  0
 54 56  1  0  0  0  0
 54 88  1  0  0  0  0
 57 58  1  0  0  0  0
 57 59  1  0  0  0  0
 57 72  1  0  0  0  0
 60 83  2  0  0  0  0
 60119  1  0  0  0  0
 61 80  2  0  0  0  0
 61107  1  0  0  0  0
 62 79  2  0  0  0  0
 62123  1  0  0  0  0
 63 82  2  0  0  0  0
 63111  1  0  0  0  0
 64 81  2  0  0  0  0
 64115  1  0  0  0  0
 65 66  1  0  0  0  0
 65 67  1  0  0  0  0
 68 78  1  0  0  0  0
 69 70  1  0  0  0  0
 69 71  1  0  0  0  0
 69 78  1  0  0  0  0
 72 73  1  0  0  0  0
 72 74  1  0  0  0  0
 75 76  1  0  0  0  0
 78 88  1  0  0  0  0
 78144  1  0  0  0  0
 84 85  1  0  0  0  0
 84 86  1  0  0  0  0
 84 87  1  0  0  0  0
 88 89  1  0  0  0  0
 88 90  1  0  0  0  0
 91 92  1  0  0  0  0
 91 93  1  0  0  0  0
 91 94  1  0  0  0  0
 95 96  1  0  0  0  0
 95 97  1  0  0  0  0
 95 98  1  0  0  0  0
 99100  1  0  0  0  0
 99101  1  0  0  0  0
 99102  1  0  0  0  0
103104  1  0  0  0  0
103105  1  0  0  0  0
103106  1  0  0  0  0
107108  1  0  0  0  0
107109  1  0  0  0  0
107110  1  0  0  0  0
111112  1  0  0  0  0
111113  1  0  0  0  0
111114  1  0  0  0  0
115116  1  0  0  0  0
115117  1  0  0  0  0
115118  1  0  0  0  0
119120  1  0  0  0  0
119121  1  0  0  0  0
119122  1  0  0  0  0
123124  1  0  0  0  0
123125  1  0  0  0  0
123126  1  0  0  0  0
M  END
>  <IDNUMBER>
AO-774/41465372

>  <NAME>
Digoxin, Derivative of

>  <ADD_INFO>
http://www.specs.net/enter.php?specsid=AO-774/41465372

>  <H_ACCEPTORS>
19

>  <H_DONORS>
1

>  <ROTATABLE_BONDS>
17

>  <LOGP>
3.99

>  <LOGS>
-9.3100004

>  <TPSA>
233.41

>  <PRICE>
N06

$$$$
AO-774/41465373
  MOE2011           3D

 73 77  0  0  1  0  0  0  0  0999 V2000
    5.1490    0.7910    1.3000 S   0  0  0  0  0  0  0  0  0  0  0  0
   -4.7630    0.2480   -0.0450 C   0  0  1  0  0  0  0  0  0  0  0  0
   -0.2790    0.3790   -0.1550 C   0  0  2  0  0  0  0  0  0  0  0  0
   -3.9250   -0.9090    0.5490 C   0  0  2  0  0  0  0  0  0  0  0  0
   -1.7760    0.3760    0.3330 C   0  0  2  0  0  0  0  0  0  0  0  0
   -2.4970   -0.9680   -0.0060 C   0  0  1  0  0  0  0  0  0  0  0  0
   -6.1130   -0.0280    0.6630 C   0  0  2  0  0  0  0  0  0  0  0  0
    0.4240   -0.8550    0.4960 C   0  0  2  0  0  0  0  0  0  0  0  0
    3.9850    0.3070    0.2660 O   0  0  0  0  0  0  0  0  0  0  0  0
   -4.0700    1.5620    0.3450 C   0  0  0  0  0  0  0  0  0  0  0  0
   -4.6000    2.4230   -0.0760 H   0  0  0  0  0  0  0  0  0  0  0  0
   -4.0920    1.6890    1.4350 H   0  0  0  0  0  0  0  0  0  0  0  0
    6.6410    0.2920    0.4820 C   0  0  0  0  0  0  0  0  0  0  0  0
   -2.6040    1.6030   -0.1250 C   0  0  0  0  0  0  0  0  0  0  0  0
   -2.1570    2.5220    0.2700 H   0  0  0  0  0  0  0  0  0  0  0  0
   -2.5820    1.6950   -1.2150 H   0  0  0  0  0  0  0  0  0  0  0  0
   -4.8250   -2.1260    0.3840 C   0  0  0  0  0  0  0  0  0  0  0  0
   -4.7570   -2.5420   -0.6270 H   0  0  0  0  0  0  0  0  0  0  0  0
   -4.5750   -2.9250    1.0890 H   0  0  0  0  0  0  0  0  0  0  0  0
    0.4590    1.6570    0.3400 C   0  0  0  0  0  0  0  0  0  0  0  0
    0.0560    2.5500   -0.1520 H   0  0  0  0  0  0  0  0  0  0  0  0
    0.2820    1.7860    1.4160 H   0  0  0  0  0  0  0  0  0  0  0  0
   -6.2360   -1.5740    0.6470 C   0  0  0  0  0  0  0  0  0  0  0  0
   -6.6100   -1.9250    1.6160 H   0  0  0  0  0  0  0  0  0  0  0  0
   -6.9270   -1.9510   -0.1150 H   0  0  0  0  0  0  0  0  0  0  0  0
   -1.7260   -2.1710    0.5560 C   0  0  0  0  0  0  0  0  0  0  0  0
   -1.7800   -2.1660    1.6530 H   0  0  0  0  0  0  0  0  0  0  0  0
   -2.1930   -3.1060    0.2240 H   0  0  0  0  0  0  0  0  0  0  0  0
    5.1470    2.2400    1.3510 O   0  0  0  0  0  0  0  0  0  0  0  0
    5.0390    0.0060    2.5150 O   0  0  0  0  0  0  0  0  0  0  0  0
   -7.3310    0.6760    0.0680 C   0  0  0  0  0  0  0  0  0  0  0  0
    1.9280   -0.9050    0.2080 C   0  0  0  0  0  0  0  0  0  0  0  0
    2.1270   -1.0760   -0.8570 H   0  0  0  0  0  0  0  0  0  0  0  0
    2.3820   -1.7630    0.7210 H   0  0  0  0  0  0  0  0  0  0  0  0
   -0.2600   -2.1770    0.1310 C   0  0  0  0  0  0  0  0  0  0  0  0
   -0.1820   -2.3730   -0.9440 H   0  0  0  0  0  0  0  0  0  0  0  0
    0.2470   -3.0100    0.6340 H   0  0  0  0  0  0  0  0  0  0  0  0
    2.6240    0.3720    0.6830 C   0  0  2  0  0  0  0  0  0  0  0  0
   -8.1670    0.0890   -0.6200 O   0  0  0  0  0  0  0  0  0  0  0  0
    7.2000    1.1220   -0.4910 C   0  0  0  0  0  0  0  0  0  0  0  0
    6.7280    2.0620   -0.7650 H   0  0  0  0  0  0  0  0  0  0  0  0
    7.2630   -0.9030    0.8480 C   0  0  0  0  0  0  0  0  0  0  0  0
    6.8410   -1.5450    1.6160 H   0  0  0  0  0  0  0  0  0  0  0  0
    1.9710    1.6230    0.0990 C   0  0  0  0  0  0  0  0  0  0  0  0
    2.4280    2.5150    0.5440 H   0  0  0  0  0  0  0  0  0  0  0  0
    2.1920    1.6960   -0.9730 H   0  0  0  0  0  0  0  0  0  0  0  0
   -4.9310    0.1780   -1.5840 C   0  0  0  0  0  0  0  0  0  0  0  0
   -3.9760    0.1820   -2.1150 H   0  0  0  0  0  0  0  0  0  0  0  0
   -5.4970    1.0420   -1.9510 H   0  0  0  0  0  0  0  0  0  0  0  0
   -5.4700   -0.7190   -1.9050 H   0  0  0  0  0  0  0  0  0  0  0  0
   -0.2040    0.3420   -1.7030 C   0  0  0  0  0  0  0  0  0  0  0  0
    0.8230    0.2550   -2.0680 H   0  0  0  0  0  0  0  0  0  0  0  0
   -0.6100    1.2600   -2.1410 H   0  0  0  0  0  0  0  0  0  0  0  0
   -0.7580   -0.4950   -2.1330 H   0  0  0  0  0  0  0  0  0  0  0  0
    8.3880    0.7390   -1.1160 C   0  0  0  0  0  0  0  0  0  0  0  0
    8.8260    1.3890   -1.8710 H   0  0  0  0  0  0  0  0  0  0  0  0
    8.4500   -1.2790    0.2170 C   0  0  0  0  0  0  0  0  0  0  0  0
    8.9340   -2.2090    0.5070 H   0  0  0  0  0  0  0  0  0  0  0  0
    9.0150   -0.4690   -0.7780 C   0  0  0  0  0  0  0  0  0  0  0  0
   -7.4670    2.1540    0.3280 C   0  0  0  0  0  0  0  0  0  0  0  0
   -7.1250    2.3930    1.3380 H   0  0  0  0  0  0  0  0  0  0  0  0
   -8.5200    2.4410    0.2500 H   0  0  0  0  0  0  0  0  0  0  0  0
   -6.8870    2.7130   -0.4090 H   0  0  0  0  0  0  0  0  0  0  0  0
   10.3070   -0.8600   -1.4340 C   0  0  0  0  0  0  0  0  0  0  0  0
   10.2990   -0.5890   -2.4950 H   0  0  0  0  0  0  0  0  0  0  0  0
   10.4670   -1.9420   -1.3760 H   0  0  0  0  0  0  0  0  0  0  0  0
   11.1440   -0.3550   -0.9430 H   0  0  0  0  0  0  0  0  0  0  0  0
   -1.7430    0.4420    1.4320 H   0  0  0  0  0  0  0  0  0  0  0  0
   -2.5470   -1.0970   -1.0920 H   0  0  0  0  0  0  0  0  0  0  0  0
   -3.8330   -0.7450    1.6370 H   0  0  0  0  0  0  0  0  0  0  0  0
    0.3270   -0.7490    1.5880 H   0  0  0  0  0  0  0  0  0  0  0  0
   -6.0560    0.2800    1.7160 H   0  0  0  0  0  0  0  0  0  0  0  0
    2.5600    0.4140    1.7780 H   0  0  0  0  0  0  0  0  0  0  0  0
  1  9  1  0  0  0  0
  1 13  1  0  0  0  0
  1 29  2  0  0  0  0
  1 30  2  0  0  0  0
  2  4  1  0  0  0  0
  2  7  1  0  0  0  0
  2 10  1  0  0  0  0
  2 47  1  0  0  0  0
  3  5  1  0  0  0  0
  3  8  1  0  0  0  0
  3 20  1  0  0  0  0
  3 51  1  0  0  0  0
  4  6  1  0  0  0  0
  4 17  1  0  0  0  0
  4 70  1  0  0  0  0
  5  6  1  0  0  0  0
  5 14  1  0  0  0  0
  5 68  1  0  0  0  0
  6 26  1  0  0  0  0
  6 69  1  0  0  0  0
  7 23  1  0  0  0  0
  7 31  1  0  0  0  0
  7 72  1  0  0  0  0
  8 32  1  0  0  0  0
  8 35  1  0  0  0  0
  8 71  1  0  0  0  0
  9 38  1  0  0  0  0
 10 11  1  0  0  0  0
 10 12  1  0  0  0  0
 10 14  1  0  0  0  0
 13 40  2  0  0  0  0
 13 42  1  0  0  0  0
 14 15  1  0  0  0  0
 14 16  1  0  0  0  0
 17 18  1  0  0  0  0
 17 19  1  0  0  0  0
 17 23  1  0  0  0  0
 20 21  1  0  0  0  0
 20 22  1  0  0  0  0
 20 44  1  0  0  0  0
 23 24  1  0  0  0  0
 23 25  1  0  0  0  0
 26 27  1  0  0  0  0
 26 28  1  0  0  0  0
 26 35  1  0  0  0  0
 31 39  2  0  0  0  0
 31 60  1  0  0  0  0
 32 33  1  0  0  0  0
 32 34  1  0  0  0  0
 32 38  1  0  0  0  0
 35 36  1  0  0  0  0
 35 37  1  0  0  0  0
 38 44  1  0  0  0  0
 38 73  1  0  0  0  0
 40 41  1  0  0  0  0
 40 55  1  0  0  0  0
 42 43  1  0  0  0  0
 42 57  2  0  0  0  0
 44 45  1  0  0  0  0
 44 46  1  0  0  0  0
 47 48  1  0  0  0  0
 47 49  1  0  0  0  0
 47 50  1  0  0  0  0
 51 52  1  0  0  0  0
 51 53  1  0  0  0  0
 51 54  1  0  0  0  0
 55 56  1  0  0  0  0
 55 59  2  0  0  0  0
 57 58  1  0  0  0  0
 57 59  1  0  0  0  0
 59 64  1  0  0  0  0
 60 61  1  0  0  0  0
 60 62  1  0  0  0  0
 60 63  1  0  0  0  0
 64 65  1  0  0  0  0
 64 66  1  0  0  0  0
 64 67  1  0  0  0  0
M  END
>  <IDNUMBER>
AO-774/41465373

>  <NAME>
3-hydroxypregnan-20-one, Derivative of

>  <ADD_INFO>
http://www.specs.net/enter.php?specsid=AO-774/41465373

>  <H_ACCEPTORS>
4

>  <H_DONORS>
0

>  <ROTATABLE_BONDS>
4

>  <LOGP>
6.0700002

>  <LOGS>
-7.8299999

>  <TPSA>
68.82

>  <PRICE>
N06

$$$$
AO-774/41465374
  MOE2011           3D

 54 57  0  0  1  0  0  0  0  0999 V2000
   -2.0680    0.3870   -0.0550 C   0  0  1  0  0  0  0  0  0  0  0  0
   -1.2290   -0.8440    0.3630 C   0  0  2  0  0  0  0  0  0  0  0  0
    0.9080    0.4800    0.3740 C   0  0  1  0  0  0  0  0  0  0  0  0
    0.2110   -0.8090   -0.1650 C   0  0  1  0  0  0  0  0  0  0  0  0
    2.4090    0.5740   -0.0850 C   0  0  2  0  0  0  0  0  0  0  0  0
   -3.4180   -0.0090    0.5970 C   0  0  2  0  0  0  0  0  0  0  0  0
   -1.3950    1.6320    0.5410 C   0  0  0  0  0  0  0  0  0  0  0  0
   -1.9390    2.5400    0.2570 H   0  0  0  0  0  0  0  0  0  0  0  0
   -1.4230    1.5860    1.6380 H   0  0  0  0  0  0  0  0  0  0  0  0
    0.0720    1.7550    0.0920 C   0  0  0  0  0  0  0  0  0  0  0  0
    0.5120    2.6110    0.6160 H   0  0  0  0  0  0  0  0  0  0  0  0
    0.0960    2.0020   -0.9740 H   0  0  0  0  0  0  0  0  0  0  0  0
   -2.1180   -2.0250   -0.0090 C   0  0  0  0  0  0  0  0  0  0  0  0
   -2.0050   -2.2990   -1.0630 H   0  0  0  0  0  0  0  0  0  0  0  0
   -1.8930   -2.9130    0.5910 H   0  0  0  0  0  0  0  0  0  0  0  0
   -3.5440   -1.5150    0.2660 C   0  0  0  0  0  0  0  0  0  0  0  0
   -3.9930   -2.0530    1.1090 H   0  0  0  0  0  0  0  0  0  0  0  0
   -4.1780   -1.6980   -0.6090 H   0  0  0  0  0  0  0  0  0  0  0  0
    0.9890   -2.0670    0.2480 C   0  0  0  0  0  0  0  0  0  0  0  0
    0.9330   -2.1980    1.3360 H   0  0  0  0  0  0  0  0  0  0  0  0
    0.5310   -2.9570   -0.2010 H   0  0  0  0  0  0  0  0  0  0  0  0
   -4.6480    0.8120    0.2160 C   0  0  0  0  0  0  0  0  0  0  0  0
    3.1350   -0.7370    0.3570 C   0  0  1  0  0  0  0  0  0  0  0  0
    2.4540   -2.0040   -0.1730 C   0  0  0  0  0  0  0  0  0  0  0  0
    2.5280   -2.0560   -1.2650 H   0  0  0  0  0  0  0  0  0  0  0  0
    2.9710   -2.8910    0.2140 H   0  0  0  0  0  0  0  0  0  0  0  0
   -4.5660    1.9420   -0.2660 O   0  0  0  0  0  0  0  0  0  0  0  0
    4.6220    1.6900    0.6170 C   0  0  0  0  0  0  0  0  0  0  0  0
    5.1670    2.5980    0.8620 H   0  0  0  0  0  0  0  0  0  0  0  0
    5.3020    0.5720    0.3240 C   0  0  0  0  0  0  0  0  0  0  0  0
    6.3880    0.5920    0.3160 H   0  0  0  0  0  0  0  0  0  0  0  0
    3.1190    1.7660    0.6280 C   0  0  0  0  0  0  0  0  0  0  0  0
    2.8220    2.7120    0.1580 H   0  0  0  0  0  0  0  0  0  0  0  0
    2.8030    1.8230    1.6770 H   0  0  0  0  0  0  0  0  0  0  0  0
   -2.2070    0.5430   -1.5920 C   0  0  0  0  0  0  0  0  0  0  0  0
   -1.2410    0.5690   -2.1030 H   0  0  0  0  0  0  0  0  0  0  0  0
   -2.7140    1.4780   -1.8500 H   0  0  0  0  0  0  0  0  0  0  0  0
   -2.7840   -0.2690   -2.0460 H   0  0  0  0  0  0  0  0  0  0  0  0
    2.5110    0.7910   -1.6180 C   0  0  0  0  0  0  0  0  0  0  0  0
    3.5490    0.8340   -1.9630 H   0  0  0  0  0  0  0  0  0  0  0  0
    2.0520    1.7380   -1.9190 H   0  0  0  0  0  0  0  0  0  0  0  0
    2.0210   -0.0040   -2.1860 H   0  0  0  0  0  0  0  0  0  0  0  0
    4.6350   -0.7330    0.0040 C   0  0  0  0  0  0  0  0  0  0  0  0
    5.1340   -1.5300    0.5700 H   0  0  0  0  0  0  0  0  0  0  0  0
    4.7900   -0.9590   -1.0580 H   0  0  0  0  0  0  0  0  0  0  0  0
   -5.9990    0.2240    0.5420 C   0  0  0  0  0  0  0  0  0  0  0  0
   -6.0080   -0.1290    1.5760 H   0  0  0  0  0  0  0  0  0  0  0  0
   -6.2280   -0.5950   -0.1440 H   0  0  0  0  0  0  0  0  0  0  0  0
   -6.7680    0.9950    0.4350 H   0  0  0  0  0  0  0  0  0  0  0  0
    0.1890   -0.7870   -1.2590 H   0  0  0  0  0  0  0  0  0  0  0  0
   -1.1560   -0.8530    1.4640 H   0  0  0  0  0  0  0  0  0  0  0  0
    0.9270    0.3820    1.4710 H   0  0  0  0  0  0  0  0  0  0  0  0
    3.0740   -0.7860    1.4560 H   0  0  0  0  0  0  0  0  0  0  0  0
   -3.3310    0.0930    1.6890 H   0  0  0  0  0  0  0  0  0  0  0  0
  1  2  1  0  0  0  0
  1  6  1  0  0  0  0
  1  7  1  0  0  0  0
  1 35  1  0  0  0  0
  2  4  1  0  0  0  0
  2 13  1  0  0  0  0
  2 51  1  0  0  0  0
  3  4  1  0  0  0  0
  3  5  1  0  0  0  0
  3 10  1  0  0  0  0
  3 52  1  0  0  0  0
  4 19  1  0  0  0  0
  4 50  1  0  0  0  0
  5 23  1  0  0  0  0
  5 32  1  0  0  0  0
  5 39  1  0  0  0  0
  6 16  1  0  0  0  0
  6 22  1  0  0  0  0
  6 54  1  0  0  0  0
  7  8  1  0  0  0  0
  7  9  1  0  0  0  0
  7 10  1  0  0  0  0
 10 11  1  0  0  0  0
 10 12  1  0  0  0  0
 13 14  1  0  0  0  0
 13 15  1  0  0  0  0
 13 16  1  0  0  0  0
 16 17  1  0  0  0  0
 16 18  1  0  0  0  0
 19 20  1  0  0  0  0
 19 21  1  0  0  0  0
 19 24  1  0  0  0  0
 22 27  2  0  0  0  0
 22 46  1  0  0  0  0
 23 24  1  0  0  0  0
 23 43  1  0  0  0  0
 23 53  1  0  0  0  0
 24 25  1  0  0  0  0
 24 26  1  0  0  0  0
 28 29  1  0  0  0  0
 28 30  2  0  0  0  0
 28 32  1  0  0  0  0
 30 31  1  0  0  0  0
 30 43  1  0  0  0  0
 32 33  1  0  0  0  0
 32 34  1  0  0  0  0
 35 36  1  0  0  0  0
 35 37  1  0  0  0  0
 35 38  1  0  0  0  0
 39 40  1  0  0  0  0
 39 41  1  0  0  0  0
 39 42  1  0  0  0  0
 43 44  1  0  0  0  0
 43 45  1  0  0  0  0
 46 47  1  0  0  0  0
 46 48  1  0  0  0  0
 46 49  1  0  0  0  0
M  END
>  <IDNUMBER>
AO-774/41465374

>  <NAME>
3,6-Dihydroxypregnan-20-one, Derivative of

>  <ADD_INFO>
http://www.specs.net/enter.php?specsid=AO-774/41465374

>  <H_ACCEPTORS>
1

>  <H_DONORS>
0

>  <ROTATABLE_BONDS>
1

>  <LOGP>
5.3000002

>  <LOGS>
-5.9200001

>  <TPSA>
17.07

>  <PRICE>
N06

$$$$
AO-774/41465375
  MOE2011           3D

 56 59  0  0  1  0  0  0  0  0999 V2000
   -2.3320    0.1820   -0.0510 C   0  0  1  0  0  0  0  0  0  0  0  0
   -1.4640   -0.9990    0.4430 C   0  0  2  0  0  0  0  0  0  0  0  0
    0.6550    0.3400    0.3050 C   0  0  1  0  0  0  0  0  0  0  0  0
   -0.0400   -0.9870   -0.1290 C   0  0  1  0  0  0  0  0  0  0  0  0
    2.1500    0.4240   -0.1840 C   0  0  1  0  0  0  0  0  0  0  0  0
   -3.6670   -0.1720    0.6470 C   0  0  2  0  0  0  0  0  0  0  0  0
   -1.6590    1.4770    0.4300 C   0  0  0  0  0  0  0  0  0  0  0  0
   -2.2120    2.3570    0.0830 H   0  0  0  0  0  0  0  0  0  0  0  0
   -1.6660    1.5200    1.5270 H   0  0  0  0  0  0  0  0  0  0  0  0
   -0.2030    1.5810   -0.0580 C   0  0  0  0  0  0  0  0  0  0  0  0
    0.2360    2.4840    0.3810 H   0  0  0  0  0  0  0  0  0  0  0  0
   -0.2070    1.7410   -1.1400 H   0  0  0  0  0  0  0  0  0  0  0  0
   -2.3430   -2.2170    0.1950 C   0  0  0  0  0  0  0  0  0  0  0  0
   -2.2850   -2.5490   -0.8480 H   0  0  0  0  0  0  0  0  0  0  0  0
   -2.0650   -3.0650    0.8290 H   0  0  0  0  0  0  0  0  0  0  0  0
   -3.7580   -1.7160    0.5240 C   0  0  0  0  0  0  0  0  0  0  0  0
   -4.1010   -2.1400    1.4750 H   0  0  0  0  0  0  0  0  0  0  0  0
   -4.4600   -2.0540   -0.2450 H   0  0  0  0  0  0  0  0  0  0  0  0
    0.7620   -2.2070    0.3420 C   0  0  0  0  0  0  0  0  0  0  0  0
    0.7440   -2.2660    1.4380 H   0  0  0  0  0  0  0  0  0  0  0  0
    0.3020   -3.1290   -0.0310 H   0  0  0  0  0  0  0  0  0  0  0  0
   -4.9040    0.5470    0.1120 C   0  0  0  0  0  0  0  0  0  0  0  0
    2.8990   -0.8560    0.2970 C   0  0  1  0  0  0  0  0  0  0  0  0
    2.2110   -2.1570   -0.1330 C   0  0  0  0  0  0  0  0  0  0  0  0
    2.2460   -2.2720   -1.2220 H   0  0  0  0  0  0  0  0  0  0  0  0
    2.7500   -3.0160    0.2860 H   0  0  0  0  0  0  0  0  0  0  0  0
   -5.7130    0.0040   -0.6410 O   0  0  0  0  0  0  0  0  0  0  0  0
   -2.5180    0.2250   -1.5900 C   0  0  0  0  0  0  0  0  0  0  0  0
   -1.5700    0.2780   -2.1310 H   0  0  0  0  0  0  0  0  0  0  0  0
   -3.0960    1.1090   -1.8840 H   0  0  0  0  0  0  0  0  0  0  0  0
   -3.0530   -0.6510   -1.9710 H   0  0  0  0  0  0  0  0  0  0  0  0
    2.2070    0.5570   -1.7290 C   0  0  0  0  0  0  0  0  0  0  0  0
    3.2330    0.5810   -2.1060 H   0  0  0  0  0  0  0  0  0  0  0  0
    1.7380    1.4850   -2.0710 H   0  0  0  0  0  0  0  0  0  0  0  0
    1.7040   -0.2690   -2.2380 H   0  0  0  0  0  0  0  0  0  0  0  0
    2.8470    1.6720    0.4480 C   0  0  0  0  0  0  0  0  0  0  0  0
    2.8100    2.5150   -0.2540 H   0  0  0  0  0  0  0  0  0  0  0  0
    2.3000    2.0080    1.3380 H   0  0  0  0  0  0  0  0  0  0  0  0
   -5.0900    1.9880    0.5130 C   0  0  0  0  0  0  0  0  0  0  0  0
   -4.7740    2.1340    1.5490 H   0  0  0  0  0  0  0  0  0  0  0  0
   -6.1500    2.2500    0.4410 H   0  0  0  0  0  0  0  0  0  0  0  0
   -4.5130    2.6330   -0.1510 H   0  0  0  0  0  0  0  0  0  0  0  0
    4.3840   -0.8710   -0.1110 C   0  0  0  0  0  0  0  0  0  0  0  0
    4.9130   -1.5810    0.5380 H   0  0  0  0  0  0  0  0  0  0  0  0
    4.5070   -1.2540   -1.1320 H   0  0  0  0  0  0  0  0  0  0  0  0
    4.3010    1.4570    0.8880 C   0  0  0  0  0  0  0  0  0  0  0  0
    4.8160    2.4240    0.9240 H   0  0  0  0  0  0  0  0  0  0  0  0
    4.3110    1.0690    1.9140 H   0  0  0  0  0  0  0  0  0  0  0  0
    5.0620    0.4960   -0.0100 C   0  0  0  0  0  0  0  0  0  0  0  0
    6.0860    0.3690    0.3610 H   0  0  0  0  0  0  0  0  0  0  0  0
    5.1590    0.9360   -1.0090 H   0  0  0  0  0  0  0  0  0  0  0  0
   -0.0950   -1.0360   -1.2210 H   0  0  0  0  0  0  0  0  0  0  0  0
   -1.3620   -0.9170    1.5380 H   0  0  0  0  0  0  0  0  0  0  0  0
    0.6940    0.3210    1.4060 H   0  0  0  0  0  0  0  0  0  0  0  0
    2.8770   -0.8470    1.3980 H   0  0  0  0  0  0  0  0  0  0  0  0
   -3.6060    0.0630    1.7190 H   0  0  0  0  0  0  0  0  0  0  0  0
  1  2  1  0  0  0  0
  1  6  1  0  0  0  0
  1  7  1  0  0  0  0
  1 28  1  0  0  0  0
  2  4  1  0  0  0  0
  2 13  1  0  0  0  0
  2 53  1  0  0  0  0
  3  4  1  0  0  0  0
  3  5  1  0  0  0  0
  3 10  1  0  0  0  0
  3 54  1  0  0  0  0
  4 19  1  0  0  0  0
  4 52  1  0  0  0  0
  5 23  1  0  0  0  0
  5 32  1  0  0  0  0
  5 36  1  0  0  0  0
  6 16  1  0  0  0  0
  6 22  1  0  0  0  0
  6 56  1  0  0  0  0
  7  8  1  0  0  0  0
  7  9  1  0  0  0  0
  7 10  1  0  0  0  0
 10 11  1  0  0  0  0
 10 12  1  0  0  0  0
 13 14  1  0  0  0  0
 13 15  1  0  0  0  0
 13 16  1  0  0  0  0
 16 17  1  0  0  0  0
 16 18  1  0  0  0  0
 19 20  1  0  0  0  0
 19 21  1  0  0  0  0
 19 24  1  0  0  0  0
 22 27  2  0  0  0  0
 22 39  1  0  0  0  0
 23 24  1  0  0  0  0
 23 43  1  0  0  0  0
 23 55  1  0  0  0  0
 24 25  1  0  0  0  0
 24 26  1  0  0  0  0
 28 29  1  0  0  0  0
 28 30  1  0  0  0  0
 28 31  1  0  0  0  0
 32 33  1  0  0  0  0
 32 34  1  0  0  0  0
 32 35  1  0  0  0  0
 36 37  1  0  0  0  0
 36 38  1  0  0  0  0
 36 46  1  0  0  0  0
 39 40  1  0  0  0  0
 39 41  1  0  0  0  0
 39 42  1  0  0  0  0
 43 44  1  0  0  0  0
 43 45  1  0  0  0  0
 43 49  1  0  0  0  0
 46 47  1  0  0  0  0
 46 48  1  0  0  0  0
 46 49  1  0  0  0  0
 49 50  1  0  0  0  0
 49 51  1  0  0  0  0
M  END
>  <IDNUMBER>
AO-774/41465375

>  <NAME>
pregnan-20-one

>  <ADD_INFO>
http://www.specs.net/enter.php?specsid=AO-774/41465375

>  <H_ACCEPTORS>
1

>  <H_DONORS>
0

>  <ROTATABLE_BONDS>
1

>  <LOGP>
5.5100002

>  <LOGS>
-6.1100001

>  <TPSA>
17.07

>  <PRICE>
N06

$$$$
AO-774/41465378
  MOE2011           3D

 80 84  0  0  1  0  0  0  0  0999 V2000
    6.3220    1.7030    0.4760 S   0  0  0  0  0  0  0  0  0  0  0  0
   -3.6280    0.3380    0.0470 C   0  0  1  0  0  0  0  0  0  0  0  0
    0.7750    1.1060   -0.3710 C   0  0  2  0  0  0  0  0  0  0  0  0
   -2.6290   -0.8390   -0.0870 C   0  0  2  0  0  0  0  0  0  0  0  0
   -0.6290    0.6590    0.1840 C   0  0  2  0  0  0  0  0  0  0  0  0
   -1.2910   -0.4310   -0.7160 C   0  0  1  0  0  0  0  0  0  0  0  0
   -4.8490   -0.4310    0.6270 C   0  0  2  0  0  0  0  0  0  0  0  0
    1.6580   -0.1760   -0.4990 C   0  0  2  0  0  0  0  0  0  0  0  0
    5.0320    1.4710   -0.4980 O   0  0  0  0  0  0  0  0  0  0  0  0
   -2.9800    1.3670    0.9880 C   0  0  0  0  0  0  0  0  0  0  0  0
   -3.6150    2.2500    1.1080 H   0  0  0  0  0  0  0  0  0  0  0  0
   -2.8600    0.9350    1.9900 H   0  0  0  0  0  0  0  0  0  0  0  0
    7.0960    0.1090    0.5330 C   0  0  0  0  0  0  0  0  0  0  0  0
   -1.6010    1.8270    0.4830 C   0  0  0  0  0  0  0  0  0  0  0  0
   -1.1710    2.4820    1.2490 H   0  0  0  0  0  0  0  0  0  0  0  0
   -1.7390    2.4480   -0.4080 H   0  0  0  0  0  0  0  0  0  0  0  0
   -3.4430   -1.9340   -0.7640 C   0  0  0  0  0  0  0  0  0  0  0  0
   -3.4620   -1.8070   -1.8520 H   0  0  0  0  0  0  0  0  0  0  0  0
   -3.0460   -2.9320   -0.5540 H   0  0  0  0  0  0  0  0  0  0  0  0
    1.4820    2.0620    0.6310 C   0  0  0  0  0  0  0  0  0  0  0  0
    0.9410    3.0130    0.7040 H   0  0  0  0  0  0  0  0  0  0  0  0
    1.4660    1.6170    1.6350 H   0  0  0  0  0  0  0  0  0  0  0  0
   -4.8530   -1.7630   -0.1790 C   0  0  0  0  0  0  0  0  0  0  0  0
   -5.1060   -2.6020    0.4780 H   0  0  0  0  0  0  0  0  0  0  0  0
   -5.5890   -1.7500   -0.9910 H   0  0  0  0  0  0  0  0  0  0  0  0
   -6.2410    0.2330    0.6080 C   0  0  3  0  0  0  0  0  0  0  0  0
   -0.3590   -1.6380   -0.8990 C   0  0  0  0  0  0  0  0  0  0  0  0
   -0.2500   -2.1690    0.0550 H   0  0  0  0  0  0  0  0  0  0  0  0
   -0.8000   -2.3500   -1.6070 H   0  0  0  0  0  0  0  0  0  0  0  0
    7.2520    2.5800   -0.2080 O   0  0  0  0  0  0  0  0  0  0  0  0
    5.8550    2.0090    1.8140 O   0  0  0  0  0  0  0  0  0  0  0  0
   -7.1660   -0.7240    1.2000 O   0  0  0  0  0  0  0  0  0  0  0  0
   -8.4600   -0.8750    0.8300 C   0  0  0  0  0  0  0  0  0  0  0  0
    3.0990    0.1360   -0.9230 C   0  0  0  0  0  0  0  0  0  0  0  0
    3.1380    0.5310   -1.9460 H   0  0  0  0  0  0  0  0  0  0  0  0
    3.6900   -0.7890   -0.9560 H   0  0  0  0  0  0  0  0  0  0  0  0
    1.0240   -1.2350   -1.4070 C   0  0  0  0  0  0  0  0  0  0  0  0
    0.9530   -0.8720   -2.4390 H   0  0  0  0  0  0  0  0  0  0  0  0
    1.6600   -2.1280   -1.4370 H   0  0  0  0  0  0  0  0  0  0  0  0
    3.7690    1.1070    0.0520 C   0  0  2  0  0  0  0  0  0  0  0  0
   -9.2000   -1.6570    1.4200 O   0  0  0  0  0  0  0  0  0  0  0  0
    7.5660   -0.3920    1.7470 C   0  0  0  0  0  0  0  0  0  0  0  0
    7.4780    0.1840    2.6660 H   0  0  0  0  0  0  0  0  0  0  0  0
    7.1990   -0.6370   -0.6420 C   0  0  0  0  0  0  0  0  0  0  0  0
    6.8280   -0.2490   -1.5880 H   0  0  0  0  0  0  0  0  0  0  0  0
    2.9330    2.3700    0.2600 C   0  0  0  0  0  0  0  0  0  0  0  0
    3.3850    2.9830    1.0480 H   0  0  0  0  0  0  0  0  0  0  0  0
    2.9740    2.9960   -0.6400 H   0  0  0  0  0  0  0  0  0  0  0  0
   -3.9920    1.0100   -1.2990 C   0  0  0  0  0  0  0  0  0  0  0  0
   -3.1180    1.4020   -1.8270 H   0  0  0  0  0  0  0  0  0  0  0  0
   -4.6660    1.8580   -1.1410 H   0  0  0  0  0  0  0  0  0  0  0  0
   -4.4940    0.3220   -1.9870 H   0  0  0  0  0  0  0  0  0  0  0  0
    0.6210    1.8430   -1.7260 C   0  0  0  0  0  0  0  0  0  0  0  0
    1.5850    2.0900   -2.1790 H   0  0  0  0  0  0  0  0  0  0  0  0
    0.0880    2.7920   -1.6040 H   0  0  0  0  0  0  0  0  0  0  0  0
    0.0740    1.2560   -2.4670 H   0  0  0  0  0  0  0  0  0  0  0  0
    8.1600   -1.6540    1.7800 C   0  0  0  0  0  0  0  0  0  0  0  0
    8.5240   -2.0460    2.7270 H   0  0  0  0  0  0  0  0  0  0  0  0
    7.7930   -1.8980   -0.6000 C   0  0  0  0  0  0  0  0  0  0  0  0
    7.8700   -2.4800   -1.5160 H   0  0  0  0  0  0  0  0  0  0  0  0
    8.2900   -2.4110    0.6060 C   0  0  0  0  0  0  0  0  0  0  0  0
   -6.3200    1.5060    1.4420 C   0  0  0  0  0  0  0  0  0  0  0  0
   -5.7920    2.3340    0.9650 H   0  0  0  0  0  0  0  0  0  0  0  0
   -5.9020    1.3460    2.4420 H   0  0  0  0  0  0  0  0  0  0  0  0
   -7.3610    1.8160    1.5870 H   0  0  0  0  0  0  0  0  0  0  0  0
   -8.9450   -0.0690   -0.3370 C   0  0  0  0  0  0  0  0  0  0  0  0
   -8.4340   -0.3820   -1.2510 H   0  0  0  0  0  0  0  0  0  0  0  0
   -8.8200    1.0000   -0.1540 H   0  0  0  0  0  0  0  0  0  0  0  0
  -10.0150   -0.2540   -0.4740 H   0  0  0  0  0  0  0  0  0  0  0  0
    8.9030   -3.7790    0.6560 C   0  0  0  0  0  0  0  0  0  0  0  0
    9.7320   -3.8060    1.3710 H   0  0  0  0  0  0  0  0  0  0  0  0
    9.3080   -4.0650   -0.3210 H   0  0  0  0  0  0  0  0  0  0  0  0
    8.1510   -4.5160    0.9530 H   0  0  0  0  0  0  0  0  0  0  0  0
   -1.4840   -0.0200   -1.7120 H   0  0  0  0  0  0  0  0  0  0  0  0
   -0.4390    0.1830    1.1600 H   0  0  0  0  0  0  0  0  0  0  0  0
   -2.4000   -1.2140    0.9250 H   0  0  0  0  0  0  0  0  0  0  0  0
    1.7270   -0.6290    0.5030 H   0  0  0  0  0  0  0  0  0  0  0  0
   -4.6270   -0.7040    1.6710 H   0  0  0  0  0  0  0  0  0  0  0  0
   -6.5300    0.4450   -0.4250 H   0  0  0  0  0  0  0  0  0  0  0  0
    3.9030    0.5880    1.0090 H   0  0  0  0  0  0  0  0  0  0  0  0
  1  9  1  0  0  0  0
  1 13  1  0  0  0  0
  1 30  2  0  0  0  0
  1 31  2  0  0  0  0
  2  4  1  0  0  0  0
  2  7  1  0  0  0  0
  2 10  1  0  0  0  0
  2 49  1  0  0  0  0
  3  5  1  0  0  0  0
  3  8  1  0  0  0  0
  3 20  1  0  0  0  0
  3 53  1  0  0  0  0
  4  6  1  0  0  0  0
  4 17  1  0  0  0  0
  4 76  1  0  0  0  0
  5  6  1  0  0  0  0
  5 14  1  0  0  0  0
  5 75  1  0  0  0  0
  6 27  1  0  0  0  0
  6 74  1  0  0  0  0
  7 23  1  0  0  0  0
  7 26  1  0  0  0  0
  7 78  1  0  0  0  0
  8 34  1  0  0  0  0
  8 37  1  0  0  0  0
  8 77  1  0  0  0  0
  9 40  1  0  0  0  0
 10 11  1  0  0  0  0
 10 12  1  0  0  0  0
 10 14  1  0  0  0  0
 13 42  2  0  0  0  0
 13 44  1  0  0  0  0
 14 15  1  0  0  0  0
 14 16  1  0  0  0  0
 17 18  1  0  0  0  0
 17 19  1  0  0  0  0
 17 23  1  0  0  0  0
 20 21  1  0  0  0  0
 20 22  1  0  0  0  0
 20 46  1  0  0  0  0
 23 24  1  0  0  0  0
 23 25  1  0  0  0  0
 26 32  1  0  0  0  0
 26 62  1  0  0  0  0
 26 79  1  0  0  0  0
 27 28  1  0  0  0  0
 27 29  1  0  0  0  0
 27 37  1  0  0  0  0
 32 33  1  0  0  0  0
 33 41  2  0  0  0  0
 33 66  1  0  0  0  0
 34 35  1  0  0  0  0
 34 36  1  0  0  0  0
 34 40  1  0  0  0  0
 37 38  1  0  0  0  0
 37 39  1  0  0  0  0
 40 46  1  0  0  0  0
 40 80  1  0  0  0  0
 42 43  1  0  0  0  0
 42 57  1  0  0  0  0
 44 45  1  0  0  0  0
 44 59  2  0  0  0  0
 46 47  1  0  0  0  0
 46 48  1  0  0  0  0
 49 50  1  0  0  0  0
 49 51  1  0  0  0  0
 49 52  1  0  0  0  0
 53 54  1  0  0  0  0
 53 55  1  0  0  0  0
 53 56  1  0  0  0  0
 57 58  1  0  0  0  0
 57 61  2  0  0  0  0
 59 60  1  0  0  0  0
 59 61  1  0  0  0  0
 61 70  1  0  0  0  0
 62 63  1  0  0  0  0
 62 64  1  0  0  0  0
 62 65  1  0  0  0  0
 66 67  1  0  0  0  0
 66 68  1  0  0  0  0
 66 69  1  0  0  0  0
 70 71  1  0  0  0  0
 70 72  1  0  0  0  0
 70 73  1  0  0  0  0
M  END
>  <IDNUMBER>
AO-774/41465378

>  <NAME>
Pregnane-3,16,20-triol, Derivative of

>  <ADD_INFO>
http://www.specs.net/enter.php?specsid=AO-774/41465378

>  <H_ACCEPTORS>
5

>  <H_DONORS>
0

>  <ROTATABLE_BONDS>
6

>  <LOGP>
7.5900002

>  <LOGS>
-9.4499998

>  <TPSA>
78.050003

>  <PRICE>
N06

$$$$
AO-774/41465380
  MOE2011           3D

 63 66  0  0  1  0  0  0  0  0999 V2000
    2.9270   -0.0340    0.0720 C   0  0  1  0  0  0  0  0  0  0  0  0
   -1.5330    0.2490    0.4690 C   0  0  2  0  0  0  0  0  0  0  0  0
    2.0150   -1.1700   -0.4470 C   0  0  2  0  0  0  0  0  0  0  0  0
   -0.0720    0.1870   -0.1140 C   0  0  2  0  0  0  0  0  0  0  0  0
    0.6260   -1.1740    0.2030 C   0  0  1  0  0  0  0  0  0  0  0  0
    4.2200   -0.3640   -0.7150 C   0  0  2  0  0  0  0  0  0  0  0  0
   -2.3160   -0.9740   -0.1090 C   0  0  2  0  0  0  0  0  0  0  0  0
    7.0910    2.0040   -0.1410 N   0  3  0  0  0  0  0  0  0  0  0  0
    2.2540    1.2970   -0.2950 C   0  0  0  0  0  0  0  0  0  0  0  0
    2.8360    2.1460    0.0800 H   0  0  0  0  0  0  0  0  0  0  0  0
    2.2100    1.4080   -1.3860 H   0  0  0  0  0  0  0  0  0  0  0  0
    8.0830    2.3300    0.1680 N   0  0  0  0  0  0  0  0  0  0  0  0
    0.8230    1.3940    0.2670 C   0  0  0  0  0  0  0  0  0  0  0  0
    0.3800    2.3210   -0.1160 H   0  0  0  0  0  0  0  0  0  0  0  0
    0.8740    1.5040    1.3540 H   0  0  0  0  0  0  0  0  0  0  0  0
    2.8860   -2.4130   -0.3200 C   0  0  0  0  0  0  0  0  0  0  0  0
    2.8800   -2.8050    0.7030 H   0  0  0  0  0  0  0  0  0  0  0  0
    2.5580   -3.2180   -0.9860 H   0  0  0  0  0  0  0  0  0  0  0  0
   -2.2590    1.5400   -0.0050 C   0  0  0  0  0  0  0  0  0  0  0  0
   -1.7980    2.4280    0.4430 H   0  0  0  0  0  0  0  0  0  0  0  0
   -2.1470    1.6450   -1.0920 H   0  0  0  0  0  0  0  0  0  0  0  0
    4.2880   -1.9130   -0.7000 C   0  0  0  0  0  0  0  0  0  0  0  0
    4.5650   -2.2770   -1.6960 H   0  0  0  0  0  0  0  0  0  0  0  0
    5.0280   -2.3130    0.0000 H   0  0  0  0  0  0  0  0  0  0  0  0
   -0.2190   -2.3610   -0.2820 C   0  0  0  0  0  0  0  0  0  0  0  0
   -0.2390   -2.3770   -1.3800 H   0  0  0  0  0  0  0  0  0  0  0  0
    0.2390   -3.3050    0.0370 H   0  0  0  0  0  0  0  0  0  0  0  0
    5.4970    0.2870   -0.1940 C   0  0  0  0  0  0  0  0  0  0  0  0
   -6.8970    0.8730   -0.2850 C   0  0  0  0  0  0  0  0  0  0  0  0
   -3.8010   -0.9670    0.2760 C   0  0  0  0  0  0  0  0  0  0  0  0
   -3.9360   -1.1040    1.3560 H   0  0  0  0  0  0  0  0  0  0  0  0
   -4.3140   -1.8210   -0.1850 H   0  0  0  0  0  0  0  0  0  0  0  0
   -1.6530   -2.3100    0.2400 C   0  0  0  0  0  0  0  0  0  0  0  0
   -1.6640   -2.4820    1.3220 H   0  0  0  0  0  0  0  0  0  0  0  0
   -2.2190   -3.1350   -0.2100 H   0  0  0  0  0  0  0  0  0  0  0  0
   -5.8310    0.3100    0.3330 O   0  0  0  0  0  0  0  0  0  0  0  0
    5.7820    1.6960   -0.6110 C   0  0  0  0  0  0  0  0  0  0  0  0
    5.0650    2.3810   -0.1560 H   0  0  0  0  0  0  0  0  0  0  0  0
    5.7560    1.7790   -1.7000 H   0  0  0  0  0  0  0  0  0  0  0  0
   -4.4820    0.3230   -0.1910 C   0  0  1  0  0  0  0  0  0  0  0  0
   -7.9990    0.9020    0.2570 O   0  0  0  0  0  0  0  0  0  0  0  0
    6.2900   -0.2850    0.5510 O   0  0  0  0  0  0  0  0  0  0  0  0
   -3.7530    1.5600    0.3310 C   0  0  0  0  0  0  0  0  0  0  0  0
   -4.2060    2.4640   -0.0910 H   0  0  0  0  0  0  0  0  0  0  0  0
   -3.9010    1.6510    1.4140 H   0  0  0  0  0  0  0  0  0  0  0  0
    3.1910   -0.0840    1.5980 C   0  0  0  0  0  0  0  0  0  0  0  0
    2.2730   -0.0390    2.1890 H   0  0  0  0  0  0  0  0  0  0  0  0
    3.8070    0.7670    1.9120 H   0  0  0  0  0  0  0  0  0  0  0  0
    3.7190   -0.9940    1.9010 H   0  0  0  0  0  0  0  0  0  0  0  0
   -1.5080    0.2440    2.0190 C   0  0  0  0  0  0  0  0  0  0  0  0
   -2.5110    0.1940    2.4520 H   0  0  0  0  0  0  0  0  0  0  0  0
   -1.0490    1.1580    2.4110 H   0  0  0  0  0  0  0  0  0  0  0  0
   -0.9510   -0.6010    2.4300 H   0  0  0  0  0  0  0  0  0  0  0  0
   -6.6860    1.4320   -1.6600 C   0  0  0  0  0  0  0  0  0  0  0  0
   -6.4230    0.6340   -2.3580 H   0  0  0  0  0  0  0  0  0  0  0  0
   -5.9320    2.2210   -1.6500 H   0  0  0  0  0  0  0  0  0  0  0  0
   -7.6230    1.8810   -2.0060 H   0  0  0  0  0  0  0  0  0  0  0  0
    0.7440   -1.2850    1.2850 H   0  0  0  0  0  0  0  0  0  0  0  0
   -0.1750    0.2360   -1.2100 H   0  0  0  0  0  0  0  0  0  0  0  0
    1.8570   -1.0190   -1.5280 H   0  0  0  0  0  0  0  0  0  0  0  0
   -2.2870   -0.8920   -1.2070 H   0  0  0  0  0  0  0  0  0  0  0  0
    4.1110   -0.0540   -1.7640 H   0  0  0  0  0  0  0  0  0  0  0  0
   -4.4880    0.3230   -1.2860 H   0  0  0  0  0  0  0  0  0  0  0  0
  1  3  1  0  0  0  0
  1  6  1  0  0  0  0
  1  9  1  0  0  0  0
  1 46  1  0  0  0  0
  2  4  1  0  0  0  0
  2  7  1  0  0  0  0
  2 19  1  0  0  0  0
  2 50  1  0  0  0  0
  3  5  1  0  0  0  0
  3 16  1  0  0  0  0
  3 60  1  0  0  0  0
  4  5  1  0  0  0  0
  4 13  1  0  0  0  0
  4 59  1  0  0  0  0
  5 25  1  0  0  0  0
  5 58  1  0  0  0  0
  6 22  1  0  0  0  0
  6 28  1  0  0  0  0
  6 62  1  0  0  0  0
  7 30  1  0  0  0  0
  7 33  1  0  0  0  0
  7 61  1  0  0  0  0
  8 12  3  0  0  0  0
  8 37  1  0  0  0  0
  9 10  1  0  0  0  0
  9 11  1  0  0  0  0
  9 13  1  0  0  0  0
 13 14  1  0  0  0  0
 13 15  1  0  0  0  0
 16 17  1  0  0  0  0
 16 18  1  0  0  0  0
 16 22  1  0  0  0  0
 19 20  1  0  0  0  0
 19 21  1  0  0  0  0
 19 43  1  0  0  0  0
 22 23  1  0  0  0  0
 22 24  1  0  0  0  0
 25 26  1  0  0  0  0
 25 27  1  0  0  0  0
 25 33  1  0  0  0  0
 28 37  1  0  0  0  0
 28 42  2  0  0  0  0
 29 36  1  0  0  0  0
 29 41  2  0  0  0  0
 29 54  1  0  0  0  0
 30 31  1  0  0  0  0
 30 32  1  0  0  0  0
 30 40  1  0  0  0  0
 33 34  1  0  0  0  0
 33 35  1  0  0  0  0
 36 40  1  0  0  0  0
 37 38  1  0  0  0  0
 37 39  1  0  0  0  0
 40 43  1  0  0  0  0
 40 63  1  0  0  0  0
 43 44  1  0  0  0  0
 43 45  1  0  0  0  0
 46 47  1  0  0  0  0
 46 48  1  0  0  0  0
 46 49  1  0  0  0  0
 50 51  1  0  0  0  0
 50 52  1  0  0  0  0
 50 53  1  0  0  0  0
 54 55  1  0  0  0  0
 54 56  1  0  0  0  0
 54 57  1  0  0  0  0
M  CHG  1   8   1
M  END
>  <IDNUMBER>
AO-774/41465380

>  <NAME>
2-[3-(acetyloxy)-10,13-dimethylhexadecahydro-1H-cyclopenta[a]phenanthren-17-yl]-2-oxoethanediazonium

>  <ADD_INFO>
http://www.specs.net/enter.php?specsid=AO-774/41465380

>  <H_ACCEPTORS>
4

>  <H_DONORS>
0

>  <ROTATABLE_BONDS>
4

>  <LOGP>
5.5500002

>  <LOGS>
-5.7600002

>  <TPSA>
71.519997

>  <PRICE>
N06

>  <SALTDATA>
Cl-

$$$$
AO-774/41465381
  MOE2011           3D

 61 64  0  0  1  0  0  0  0  0999 V2000
    2.0510   -0.5490   -0.4250 C   0  0  1  0  0  0  0  0  0  0  0  0
   -2.4430    0.5850    0.1380 C   0  0  2  0  0  0  0  0  0  0  0  0
   -1.0020    0.2450   -0.3700 C   0  0  2  0  0  0  0  0  0  0  0  0
    0.8380   -1.3960   -0.6300 C   0  0  2  0  0  0  0  0  0  0  0  0
   -0.5780   -1.1900   -0.0320 C   0  0  2  0  0  0  0  0  0  0  0  0
   -3.4110   -0.4680   -0.4920 C   0  0  1  0  0  0  0  0  0  0  0  0
    3.3960    0.0040   -0.5730 C   0  0  1  0  0  0  0  0  0  0  0  0
    1.3120    0.3850    0.6510 C   0  0  0  0  0  0  0  0  0  0  0  0
    1.0370   -0.1310    1.5810 H   0  0  0  0  0  0  0  0  0  0  0  0
    1.9610    1.1540    1.0680 H   0  0  0  0  0  0  0  0  0  0  0  0
    0.1180    1.1770    0.0930 C   0  0  0  0  0  0  0  0  0  0  0  0
    0.4550    1.7950   -0.7490 H   0  0  0  0  0  0  0  0  0  0  0  0
   -0.2200    1.8810    0.8590 H   0  0  0  0  0  0  0  0  0  0  0  0
   -2.8730    1.9890   -0.3670 C   0  0  0  0  0  0  0  0  0  0  0  0
   -2.2590    2.7720    0.0950 H   0  0  0  0  0  0  0  0  0  0  0  0
   -2.6970    2.0580   -1.4490 H   0  0  0  0  0  0  0  0  0  0  0  0
    1.8620   -2.2240    0.5690 C   0  0  0  0  0  0  0  0  0  0  0  0
    1.4330   -2.1870    1.5780 H   0  0  0  0  0  0  0  0  0  0  0  0
    2.0480   -3.2760    0.3180 H   0  0  0  0  0  0  0  0  0  0  0  0
   -1.5890   -2.2120   -0.5820 C   0  0  0  0  0  0  0  0  0  0  0  0
   -1.5630   -2.2140   -1.6800 H   0  0  0  0  0  0  0  0  0  0  0  0
   -1.3090   -3.2210   -0.2580 H   0  0  0  0  0  0  0  0  0  0  0  0
    5.3010    1.6380   -0.5970 C   0  0  0  0  0  0  0  0  0  0  0  0
    3.9650    1.2910    0.0320 C   0  0  0  0  0  0  0  0  0  0  0  0
    4.0470    1.2750    1.1190 H   0  0  0  0  0  0  0  0  0  0  0  0
    3.3170    2.1410   -0.2220 H   0  0  0  0  0  0  0  0  0  0  0  0
   -3.0200   -1.9090   -0.1330 C   0  0  0  0  0  0  0  0  0  0  0  0
   -3.1210   -2.0850    0.9430 H   0  0  0  0  0  0  0  0  0  0  0  0
   -3.7000   -2.6130   -0.6280 H   0  0  0  0  0  0  0  0  0  0  0  0
    3.4660   -1.3010    0.6170 C   0  0  0  0  0  0  0  0  0  0  0  0
    4.2920   -1.9950    0.4180 H   0  0  0  0  0  0  0  0  0  0  0  0
    3.5600   -0.9000    1.6350 H   0  0  0  0  0  0  0  0  0  0  0  0
   -4.8840   -0.1810   -0.1760 C   0  0  0  0  0  0  0  0  0  0  0  0
   -5.0960   -0.3040    0.8920 H   0  0  0  0  0  0  0  0  0  0  0  0
   -5.5270   -0.9140   -0.6800 H   0  0  0  0  0  0  0  0  0  0  0  0
    5.3540    2.2010   -1.6890 O   0  0  0  0  0  0  0  0  0  0  0  0
   -4.3470    2.3020   -0.0990 C   0  0  0  0  0  0  0  0  0  0  0  0
   -4.6050    3.2660   -0.5550 H   0  0  0  0  0  0  0  0  0  0  0  0
   -4.5220    2.4420    0.9750 H   0  0  0  0  0  0  0  0  0  0  0  0
   -5.2800    1.2210   -0.6410 C   0  0  2  0  0  0  0  0  0  0  0  0
   -2.5070    0.5690    1.6880 C   0  0  0  0  0  0  0  0  0  0  0  0
   -3.5210    0.7290    2.0650 H   0  0  0  0  0  0  0  0  0  0  0  0
   -1.8910    1.3610    2.1250 H   0  0  0  0  0  0  0  0  0  0  0  0
   -2.1650   -0.3770    2.1160 H   0  0  0  0  0  0  0  0  0  0  0  0
    2.6350   -1.8110   -1.6370 C   0  0  0  0  0  0  0  0  0  0  0  0
    3.7160   -2.0280   -1.6190 H   0  0  0  0  0  0  0  0  0  0  0  0
    2.4270   -1.3830   -2.6330 H   0  0  0  0  0  0  0  0  0  0  0  0
    2.2260   -2.8370   -1.6260 H   0  0  0  0  0  0  0  0  0  0  0  0
    6.4370    1.2810    0.0460 O   0  0  0  0  0  0  0  0  0  0  0  0
   -6.6130    1.4810   -0.2140 O   0  0  0  0  0  0  0  0  0  0  0  0
   -6.8530    2.3690   -0.5280 H   0  0  0  0  0  0  0  0  0  0  0  0
    6.4500    0.7070    1.3590 C   0  0  0  0  0  0  0  0  0  0  0  0
    7.4950    0.5460    1.6400 H   0  0  0  0  0  0  0  0  0  0  0  0
    5.9470   -0.2610    1.3590 H   0  0  0  0  0  0  0  0  0  0  0  0
    6.0060    1.3950    2.0830 H   0  0  0  0  0  0  0  0  0  0  0  0
   -1.0290    0.3230   -1.4690 H   0  0  0  0  0  0  0  0  0  0  0  0
   -0.5630   -1.3500    1.0510 H   0  0  0  0  0  0  0  0  0  0  0  0
    0.6370   -1.9290   -1.5660 H   0  0  0  0  0  0  0  0  0  0  0  0
   -3.3150   -0.3870   -1.5870 H   0  0  0  0  0  0  0  0  0  0  0  0
    3.9870   -0.2000   -1.4700 H   0  0  0  0  0  0  0  0  0  0  0  0
   -5.2730    1.2490   -1.7380 H   0  0  0  0  0  0  0  0  0  0  0  0
  1  4  1  0  0  0  0
  1  7  1  0  0  0  0
  1  8  1  0  0  0  0
  1 45  1  0  0  0  0
  2  3  1  0  0  0  0
  2  6  1  0  0  0  0
  2 14  1  0  0  0  0
  2 41  1  0  0  0  0
  3  5  1  0  0  0  0
  3 11  1  0  0  0  0
  3 56  1  0  0  0  0
  4  5  1  0  0  0  0
  4 17  1  0  0  0  0
  4 58  1  0  0  0  0
  5 20  1  0  0  0  0
  5 57  1  0  0  0  0
  6 27  1  0  0  0  0
  6 33  1  0  0  0  0
  6 59  1  0  0  0  0
  7 24  1  0  0  0  0
  7 30  1  0  0  0  0
  7 60  1  0  0  0  0
  8  9  1  0  0  0  0
  8 10  1  0  0  0  0
  8 11  1  0  0  0  0
 11 12  1  0  0  0  0
 11 13  1  0  0  0  0
 14 15  1  0  0  0  0
 14 16  1  0  0  0  0
 14 37  1  0  0  0  0
 17 18  1  0  0  0  0
 17 19  1  0  0  0  0
 17 30  1  0  0  0  0
 20 21  1  0  0  0  0
 20 22  1  0  0  0  0
 20 27  1  0  0  0  0
 23 24  1  0  0  0  0
 23 36  2  0  0  0  0
 23 49  1  0  0  0  0
 24 25  1  0  0  0  0
 24 26  1  0  0  0  0
 27 28  1  0  0  0  0
 27 29  1  0  0  0  0
 30 31  1  0  0  0  0
 30 32  1  0  0  0  0
 33 34  1  0  0  0  0
 33 35  1  0  0  0  0
 33 40  1  0  0  0  0
 37 38  1  0  0  0  0
 37 39  1  0  0  0  0
 37 40  1  0  0  0  0
 40 50  1  0  0  0  0
 40 61  1  0  0  0  0
 41 42  1  0  0  0  0
 41 43  1  0  0  0  0
 41 44  1  0  0  0  0
 45 46  1  0  0  0  0
 45 47  1  0  0  0  0
 45 48  1  0  0  0  0
 49 52  1  0  0  0  0
 50 51  1  0  0  0  0
 52 53  1  0  0  0  0
 52 54  1  0  0  0  0
 52 55  1  0  0  0  0
M  END
>  <IDNUMBER>
AO-774/41465381

>  <NAME>
3,21-Dihydroxypregnan-20-one, Derivative of

>  <ADD_INFO>
http://www.specs.net/enter.php?specsid=AO-774/41465381

>  <H_ACCEPTORS>
3

>  <H_DONORS>
1

>  <ROTATABLE_BONDS>
3

>  <LOGP>
5.0700002

>  <LOGS>
-5.5599999

>  <TPSA>
46.529999

>  <PRICE>
N06

$$$$
AO-774/41465386
  MOE2011           3D

 68 71  0  0  1  0  0  0  0  0999 V2000
    2.5560    0.6960   -0.5170 C   0  0  2  0  0  0  0  0  0  0  0  0
    3.9100    1.0680    0.1050 C   0  0  0  0  0  0  0  0  0  0  0  0
   -1.9010    0.0920   -0.5150 C   0  0  2  0  0  0  0  0  0  0  0  0
    1.6230    1.6150    0.3150 C   0  0  2  0  0  0  0  0  0  0  0  0
   -0.3930    0.1740   -0.0720 C   0  0  2  0  0  0  0  0  0  0  0  0
    0.1730    1.6230   -0.1880 C   0  0  1  0  0  0  0  0  0  0  0  0
    5.0430    0.3310    0.1990 C   0  0  0  0  0  0  0  0  0  0  0  0
   -2.6980    1.1130    0.3590 C   0  0  2  0  0  0  0  0  0  0  0  0
    2.0120   -0.7350   -0.3430 C   0  0  0  0  0  0  0  0  0  0  0  0
    2.5780   -1.4550   -0.9420 H   0  0  0  0  0  0  0  0  0  0  0  0
    2.1120   -1.0510    0.7040 H   0  0  0  0  0  0  0  0  0  0  0  0
    3.7990    2.4830    0.6790 C   0  0  0  0  0  0  0  0  0  0  0  0
    3.9560    2.4590    1.7640 H   0  0  0  0  0  0  0  0  0  0  0  0
    4.5200    3.1690    0.2240 H   0  0  0  0  0  0  0  0  0  0  0  0
    6.1850    0.8750    0.8750 C   0  0  0  0  0  0  0  0  0  0  0  0
    7.1150    1.3110    1.4140 N   0  0  0  0  0  0  0  0  0  0  0  0
    0.5330   -0.8560   -0.7600 C   0  0  0  0  0  0  0  0  0  0  0  0
    0.2050   -1.8720   -0.5180 H   0  0  0  0  0  0  0  0  0  0  0  0
    0.4650   -0.7640   -1.8490 H   0  0  0  0  0  0  0  0  0  0  0  0
    2.3710    2.9360    0.3790 C   0  0  0  0  0  0  0  0  0  0  0  0
    2.3170    3.4840   -0.5690 H   0  0  0  0  0  0  0  0  0  0  0  0
    1.9950    3.5970    1.1670 H   0  0  0  0  0  0  0  0  0  0  0  0
   -2.4800   -1.3240   -0.2310 C   0  0  0  0  0  0  0  0  0  0  0  0
   -2.0080   -2.0700   -0.8810 H   0  0  0  0  0  0  0  0  0  0  0  0
   -2.2440   -1.6150    0.8010 H   0  0  0  0  0  0  0  0  0  0  0  0
   -0.6930    2.6230    0.5940 C   0  0  0  0  0  0  0  0  0  0  0  0
   -0.5920    2.4370    1.6710 H   0  0  0  0  0  0  0  0  0  0  0  0
   -0.3410    3.6450    0.4170 H   0  0  0  0  0  0  0  0  0  0  0  0
   -7.0990   -1.1300    0.5810 C   0  0  0  0  0  0  0  0  0  0  0  0
    4.9760   -3.3000    0.1180 C   0  0  0  0  0  0  0  0  0  0  0  0
   -4.2120    1.0460    0.1200 C   0  0  0  0  0  0  0  0  0  0  0  0
   -4.4720    1.3710   -0.8950 H   0  0  0  0  0  0  0  0  0  0  0  0
   -4.7290    1.7500    0.7840 H   0  0  0  0  0  0  0  0  0  0  0  0
   -2.1690    2.5430    0.2120 C   0  0  0  0  0  0  0  0  0  0  0  0
   -2.3130    2.9100   -0.8100 H   0  0  0  0  0  0  0  0  0  0  0  0
   -2.7370    3.2180    0.8650 H   0  0  0  0  0  0  0  0  0  0  0  0
    5.2500   -1.0300   -0.4110 C   0  0  0  0  0  0  0  0  0  0  0  0
    6.3000   -1.1560   -0.7070 H   0  0  0  0  0  0  0  0  0  0  0  0
    4.6480   -1.1610   -1.3150 H   0  0  0  0  0  0  0  0  0  0  0  0
   -6.1430   -0.3710   -0.0050 O   0  0  0  0  0  0  0  0  0  0  0  0
    4.9200   -2.0190    0.5720 O   0  0  0  0  0  0  0  0  0  0  0  0
   -4.7500   -0.3620    0.3870 C   0  0  1  0  0  0  0  0  0  0  0  0
   -8.2440   -1.1600    0.1370 O   0  0  0  0  0  0  0  0  0  0  0  0
    5.2870   -3.6400   -1.0150 O   0  0  0  0  0  0  0  0  0  0  0  0
   -3.9950   -1.4140   -0.4250 C   0  0  0  0  0  0  0  0  0  0  0  0
   -4.3370   -2.4170   -0.1430 H   0  0  0  0  0  0  0  0  0  0  0  0
   -4.2520   -1.3200   -1.4870 H   0  0  0  0  0  0  0  0  0  0  0  0
    2.6320    1.0560   -2.0210 C   0  0  0  0  0  0  0  0  0  0  0  0
    1.6600    1.0070   -2.5190 H   0  0  0  0  0  0  0  0  0  0  0  0
    3.2950    0.3610   -2.5500 H   0  0  0  0  0  0  0  0  0  0  0  0
    3.0290    2.0620   -2.1930 H   0  0  0  0  0  0  0  0  0  0  0  0
   -2.0470    0.3840   -2.0300 C   0  0  0  0  0  0  0  0  0  0  0  0
   -3.0930    0.4260   -2.3480 H   0  0  0  0  0  0  0  0  0  0  0  0
   -1.5740   -0.3980   -2.6330 H   0  0  0  0  0  0  0  0  0  0  0  0
   -1.5970    1.3360   -2.3220 H   0  0  0  0  0  0  0  0  0  0  0  0
   -6.7150   -1.9060    1.8050 C   0  0  0  0  0  0  0  0  0  0  0  0
   -6.4440   -1.2250    2.6150 H   0  0  0  0  0  0  0  0  0  0  0  0
   -5.9080   -2.6080    1.5860 H   0  0  0  0  0  0  0  0  0  0  0  0
   -7.5780   -2.4920    2.1380 H   0  0  0  0  0  0  0  0  0  0  0  0
    4.5930   -4.2470    1.2130 C   0  0  0  0  0  0  0  0  0  0  0  0
    5.2790   -4.1350    2.0570 H   0  0  0  0  0  0  0  0  0  0  0  0
    4.6590   -5.2740    0.8440 H   0  0  0  0  0  0  0  0  0  0  0  0
    3.5640   -4.0520    1.5260 H   0  0  0  0  0  0  0  0  0  0  0  0
    1.5920    1.2340    1.3510 H   0  0  0  0  0  0  0  0  0  0  0  0
    0.1660    1.9420   -1.2350 H   0  0  0  0  0  0  0  0  0  0  0  0
   -0.3710   -0.0850    0.9990 H   0  0  0  0  0  0  0  0  0  0  0  0
   -2.5450    0.8320    1.4130 H   0  0  0  0  0  0  0  0  0  0  0  0
   -4.6440   -0.5660    1.4580 H   0  0  0  0  0  0  0  0  0  0  0  0
  1  2  1  0  0  0  0
  1  4  1  0  0  0  0
  1  9  1  0  0  0  0
  1 48  1  0  0  0  0
  2  7  2  0  0  0  0
  2 12  1  0  0  0  0
  3  5  1  0  0  0  0
  3  8  1  0  0  0  0
  3 23  1  0  0  0  0
  3 52  1  0  0  0  0
  4  6  1  0  0  0  0
  4 20  1  0  0  0  0
  4 64  1  0  0  0  0
  5  6  1  0  0  0  0
  5 17  1  0  0  0  0
  5 66  1  0  0  0  0
  6 26  1  0  0  0  0
  6 65  1  0  0  0  0
  7 15  1  0  0  0  0
  7 37  1  0  0  0  0
  8 31  1  0  0  0  0
  8 34  1  0  0  0  0
  8 67  1  0  0  0  0
  9 10  1  0  0  0  0
  9 11  1  0  0  0  0
  9 17  1  0  0  0  0
 12 13  1  0  0  0  0
 12 14  1  0  0  0  0
 12 20  1  0  0  0  0
 15 16  3  0  0  0  0
 17 18  1  0  0  0  0
 17 19  1  0  0  0  0
 20 21  1  0  0  0  0
 20 22  1  0  0  0  0
 23 24  1  0  0  0  0
 23 25  1  0  0  0  0
 23 45  1  0  0  0  0
 26 27  1  0  0  0  0
 26 28  1  0  0  0  0
 26 34  1  0  0  0  0
 29 40  1  0  0  0  0
 29 43  2  0  0  0  0
 29 56  1  0  0  0  0
 30 41  1  0  0  0  0
 30 44  2  0  0  0  0
 30 60  1  0  0  0  0
 31 32  1  0  0  0  0
 31 33  1  0  0  0  0
 31 42  1  0  0  0  0
 34 35  1  0  0  0  0
 34 36  1  0  0  0  0
 37 38  1  0  0  0  0
 37 39  1  0  0  0  0
 37 41  1  0  0  0  0
 40 42  1  0  0  0  0
 42 45  1  0  0  0  0
 42 68  1  0  0  0  0
 45 46  1  0  0  0  0
 45 47  1  0  0  0  0
 48 49  1  0  0  0  0
 48 50  1  0  0  0  0
 48 51  1  0  0  0  0
 52 53  1  0  0  0  0
 52 54  1  0  0  0  0
 52 55  1  0  0  0  0
 56 57  1  0  0  0  0
 56 58  1  0  0  0  0
 56 59  1  0  0  0  0
 60 61  1  0  0  0  0
 60 62  1  0  0  0  0
 60 63  1  0  0  0  0
M  END
>  <IDNUMBER>
AO-774/41465386

>  <NAME>
17-[2-(acetyloxy)-1-cyanoethylidene]-10,13-dimethylhexadecahydro-1H-cyclopenta[a]phenanthren-3-yl acetate

>  <ADD_INFO>
http://www.specs.net/enter.php?specsid=AO-774/41465386

>  <H_ACCEPTORS>
5

>  <H_DONORS>
0

>  <ROTATABLE_BONDS>
5

>  <LOGP>
5.5599999

>  <LOGS>
-7.3299999

>  <TPSA>
76.389999

>  <PRICE>
N06

$$$$
AO-774/41465388
  MOE2011           3D

 58 61  0  0  1  0  0  0  0  0999 V2000
    2.3730   -0.0200   -0.1460 C   0  0  1  0  0  0  0  0  0  0  0  0
   -2.1000   -0.3740   -0.2230 C   0  0  2  0  0  0  0  0  0  0  0  0
    1.4840    1.0860    0.4690 C   0  0  2  0  0  0  0  0  0  0  0  0
   -0.6010   -0.3010    0.2530 C   0  0  2  0  0  0  0  0  0  0  0  0
    0.0500    1.0810   -0.0730 C   0  0  1  0  0  0  0  0  0  0  0  0
    3.7160    0.3140    0.5510 C   0  0  2  0  0  0  0  0  0  0  0  0
   -2.8590    0.8170    0.4460 C   0  0  1  0  0  0  0  0  0  0  0  0
    1.7490   -1.3720    0.2330 C   0  0  0  0  0  0  0  0  0  0  0  0
    2.3170   -2.2010   -0.2030 H   0  0  0  0  0  0  0  0  0  0  0  0
    1.7860   -1.5100    1.3220 H   0  0  0  0  0  0  0  0  0  0  0  0
    0.2830   -1.4800   -0.2260 C   0  0  0  0  0  0  0  0  0  0  0  0
   -0.1150   -2.4250    0.1610 H   0  0  0  0  0  0  0  0  0  0  0  0
    0.2570   -1.5600   -1.3170 H   0  0  0  0  0  0  0  0  0  0  0  0
    2.3200    2.3480    0.3120 C   0  0  0  0  0  0  0  0  0  0  0  0
    2.2200    2.7730   -0.6930 H   0  0  0  0  0  0  0  0  0  0  0  0
    2.0370    3.1250    1.0290 H   0  0  0  0  0  0  0  0  0  0  0  0
   -2.7670   -1.6920    0.2640 C   0  0  0  0  0  0  0  0  0  0  0  0
   -2.3220   -2.5590   -0.2380 H   0  0  0  0  0  0  0  0  0  0  0  0
   -2.5770   -1.8220    1.3370 H   0  0  0  0  0  0  0  0  0  0  0  0
    3.7590    1.8660    0.5530 C   0  0  0  0  0  0  0  0  0  0  0  0
    4.1240    2.2220    1.5240 H   0  0  0  0  0  0  0  0  0  0  0  0
    4.4220    2.2880   -0.2080 H   0  0  0  0  0  0  0  0  0  0  0  0
   -0.7760    2.2370    0.5100 C   0  0  0  0  0  0  0  0  0  0  0  0
   -0.7150    2.2200    1.6060 H   0  0  0  0  0  0  0  0  0  0  0  0
   -0.3590    3.1980    0.1870 H   0  0  0  0  0  0  0  0  0  0  0  0
    4.9630   -0.3160   -0.0730 C   0  0  0  0  0  0  0  0  0  0  0  0
   -2.2440    2.1760    0.0930 C   0  0  0  0  0  0  0  0  0  0  0  0
   -2.3380    2.3790   -0.9800 H   0  0  0  0  0  0  0  0  0  0  0  0
   -2.7880    2.9760    0.6080 H   0  0  0  0  0  0  0  0  0  0  0  0
   -4.3670    0.7970    0.1660 C   0  0  0  0  0  0  0  0  0  0  0  0
   -4.5790    0.9730   -0.8950 H   0  0  0  0  0  0  0  0  0  0  0  0
   -4.8600    1.6230    0.6950 H   0  0  0  0  0  0  0  0  0  0  0  0
    5.7430    0.3300   -0.7770 O   0  0  0  0  0  0  0  0  0  0  0  0
    2.5210    0.0760   -1.6860 C   0  0  0  0  0  0  0  0  0  0  0  0
    1.5620    0.0300   -2.2080 H   0  0  0  0  0  0  0  0  0  0  0  0
    3.1250   -0.7540   -2.0700 H   0  0  0  0  0  0  0  0  0  0  0  0
    3.0110    1.0030   -2.0020 H   0  0  0  0  0  0  0  0  0  0  0  0
   -4.2790   -1.7330    0.0320 C   0  0  0  0  0  0  0  0  0  0  0  0
   -4.6920   -2.6480    0.4740 H   0  0  0  0  0  0  0  0  0  0  0  0
   -4.5020   -1.8120   -1.0390 H   0  0  0  0  0  0  0  0  0  0  0  0
   -4.9920   -0.5200    0.6230 C   0  0  2  0  0  0  0  0  0  0  0  0
   -2.1890   -0.3250   -1.7700 C   0  0  0  0  0  0  0  0  0  0  0  0
   -3.2220   -0.2830   -2.1270 H   0  0  0  0  0  0  0  0  0  0  0  0
   -1.7430   -1.2170   -2.2210 H   0  0  0  0  0  0  0  0  0  0  0  0
   -1.6790    0.5430   -2.1960 H   0  0  0  0  0  0  0  0  0  0  0  0
   -6.3610   -0.5320    0.2340 O   0  0  0  0  0  0  0  0  0  0  0  0
   -6.7470   -1.3690    0.5450 H   0  0  0  0  0  0  0  0  0  0  0  0
    4.8430   -2.2290    1.4430 O   0  0  0  0  0  0  0  0  0  0  0  0
    5.2130   -3.1200    1.5670 H   0  0  0  0  0  0  0  0  0  0  0  0
    5.1900   -1.8060    0.1400 C   0  0  0  0  0  0  0  0  0  0  0  0
    6.2540   -2.0130   -0.0140 H   0  0  0  0  0  0  0  0  0  0  0  0
    4.6070   -2.3670   -0.5950 H   0  0  0  0  0  0  0  0  0  0  0  0
    1.4100    0.9040    1.5550 H   0  0  0  0  0  0  0  0  0  0  0  0
    0.0840    1.2260   -1.1580 H   0  0  0  0  0  0  0  0  0  0  0  0
   -0.6220   -0.3820    1.3520 H   0  0  0  0  0  0  0  0  0  0  0  0
   -2.7510    0.7030    1.5360 H   0  0  0  0  0  0  0  0  0  0  0  0
    3.6840   -0.0020    1.6020 H   0  0  0  0  0  0  0  0  0  0  0  0
   -4.9590   -0.5720    1.7180 H   0  0  0  0  0  0  0  0  0  0  0  0
  1  3  1  0  0  0  0
  1  6  1  0  0  0  0
  1  8  1  0  0  0  0
  1 34  1  0  0  0  0
  2  4  1  0  0  0  0
  2  7  1  0  0  0  0
  2 17  1  0  0  0  0
  2 42  1  0  0  0  0
  3  5  1  0  0  0  0
  3 14  1  0  0  0  0
  3 53  1  0  0  0  0
  4  5  1  0  0  0  0
  4 11  1  0  0  0  0
  4 55  1  0  0  0  0
  5 23  1  0  0  0  0
  5 54  1  0  0  0  0
  6 20  1  0  0  0  0
  6 26  1  0  0  0  0
  6 57  1  0  0  0  0
  7 27  1  0  0  0  0
  7 30  1  0  0  0  0
  7 56  1  0  0  0  0
  8  9  1  0  0  0  0
  8 10  1  0  0  0  0
  8 11  1  0  0  0  0
 11 12  1  0  0  0  0
 11 13  1  0  0  0  0
 14 15  1  0  0  0  0
 14 16  1  0  0  0  0
 14 20  1  0  0  0  0
 17 18  1  0  0  0  0
 17 19  1  0  0  0  0
 17 38  1  0  0  0  0
 20 21  1  0  0  0  0
 20 22  1  0  0  0  0
 23 24  1  0  0  0  0
 23 25  1  0  0  0  0
 23 27  1  0  0  0  0
 26 33  2  0  0  0  0
 26 50  1  0  0  0  0
 27 28  1  0  0  0  0
 27 29  1  0  0  0  0
 30 31  1  0  0  0  0
 30 32  1  0  0  0  0
 30 41  1  0  0  0  0
 34 35  1  0  0  0  0
 34 36  1  0  0  0  0
 34 37  1  0  0  0  0
 38 39  1  0  0  0  0
 38 40  1  0  0  0  0
 38 41  1  0  0  0  0
 41 46  1  0  0  0  0
 41 58  1  0  0  0  0
 42 43  1  0  0  0  0
 42 44  1  0  0  0  0
 42 45  1  0  0  0  0
 46 47  1  0  0  0  0
 48 49  1  0  0  0  0
 48 50  1  0  0  0  0
 50 51  1  0  0  0  0
 50 52  1  0  0  0  0
M  END
>  <IDNUMBER>
AO-774/41465388

>  <NAME>
3,21-Dihydroxypregnan-20-one, Derivative of

>  <ADD_INFO>
http://www.specs.net/enter.php?specsid=AO-774/41465388

>  <H_ACCEPTORS>
3

>  <H_DONORS>
2

>  <ROTATABLE_BONDS>
2

>  <LOGP>
3.8299999

>  <LOGS>
-4.9099998

>  <TPSA>
57.529999

>  <PRICE>
N06

$$$$
AO-774/41465390
  MOE2011           3D

 59 62  0  0  1  0  0  0  0  0999 V2000
   -3.4530   -0.2960   -0.0950 C   0  0  1  0  0  0  0  0  0  0  0  0
    1.0110   -0.5910    0.1780 C   0  0  2  0  0  0  0  0  0  0  0  0
   -2.5650    0.9300   -0.4080 C   0  0  2  0  0  0  0  0  0  0  0  0
   -0.4580   -0.4410   -0.3660 C   0  0  2  0  0  0  0  0  0  0  0  0
   -1.1630    0.8310    0.2050 C   0  0  1  0  0  0  0  0  0  0  0  0
   -4.7690    0.1550   -0.7760 C   0  0  1  0  0  0  0  0  0  0  0  0
    1.7770    0.7250   -0.1720 C   0  0  2  0  0  0  0  0  0  0  0  0
   -6.0620   -0.6420   -0.5200 C   0  0  0  0  0  0  0  0  0  0  0  0
   -2.7750   -1.5270   -0.7160 C   0  0  0  0  0  0  0  0  0  0  0  0
   -3.3450   -2.4380   -0.5030 H   0  0  0  0  0  0  0  0  0  0  0  0
   -2.7470   -1.4280   -1.8090 H   0  0  0  0  0  0  0  0  0  0  0  0
   -1.3350   -1.7080   -0.2030 C   0  0  0  0  0  0  0  0  0  0  0  0
   -0.8900   -2.5420   -0.7570 H   0  0  0  0  0  0  0  0  0  0  0  0
   -1.3680   -2.0190    0.8460 H   0  0  0  0  0  0  0  0  0  0  0  0
   -3.4450    2.1140   -0.0310 C   0  0  0  0  0  0  0  0  0  0  0  0
   -3.3930    2.3290    1.0430 H   0  0  0  0  0  0  0  0  0  0  0  0
   -3.1590    3.0270   -0.5640 H   0  0  0  0  0  0  0  0  0  0  0  0
    1.7430   -1.7630   -0.5350 C   0  0  0  0  0  0  0  0  0  0  0  0
    1.2920   -2.7240   -0.2600 H   0  0  0  0  0  0  0  0  0  0  0  0
    1.6230   -1.6620   -1.6220 H   0  0  0  0  0  0  0  0  0  0  0  0
   -4.8610    1.6600   -0.4210 C   0  0  0  0  0  0  0  0  0  0  0  0
   -5.2210    2.2280   -1.2870 H   0  0  0  0  0  0  0  0  0  0  0  0
   -5.5530    1.8580    0.4050 H   0  0  0  0  0  0  0  0  0  0  0  0
   -0.3370    2.0960   -0.0700 C   0  0  0  0  0  0  0  0  0  0  0  0
   -0.3320    2.3080   -1.1470 H   0  0  0  0  0  0  0  0  0  0  0  0
   -0.7990    2.9620    0.4180 H   0  0  0  0  0  0  0  0  0  0  0  0
    6.2460    0.1610   -0.5510 C   0  0  0  0  0  0  0  0  0  0  0  0
    3.2650    0.6660    0.1970 C   0  0  0  0  0  0  0  0  0  0  0  0
    3.4070    0.6090    1.2830 H   0  0  0  0  0  0  0  0  0  0  0  0
    3.7580    1.5990   -0.1040 H   0  0  0  0  0  0  0  0  0  0  0  0
    1.1040    1.9680    0.4180 C   0  0  0  0  0  0  0  0  0  0  0  0
    1.1280    1.9420    1.5140 H   0  0  0  0  0  0  0  0  0  0  0  0
    1.6560    2.8680    0.1190 H   0  0  0  0  0  0  0  0  0  0  0  0
    5.3040   -0.6470    0.0080 O   0  0  0  0  0  0  0  0  0  0  0  0
   -7.1210    0.0400   -0.4340 O   0  0  0  0  0  0  0  0  0  0  0  0
    3.9590   -0.5130   -0.4930 C   0  0  1  0  0  0  0  0  0  0  0  0
    6.0580    0.9770   -1.4420 O   0  0  0  0  0  0  0  0  0  0  0  0
    3.2380   -1.8320   -0.2170 C   0  0  0  0  0  0  0  0  0  0  0  0
    3.7020   -2.6280   -0.8140 H   0  0  0  0  0  0  0  0  0  0  0  0
    3.3940   -2.1340    0.8250 H   0  0  0  0  0  0  0  0  0  0  0  0
   -5.9200   -1.8960   -0.4620 O   0  5  0  0  0  0  0  0  0  0  0  0
   -3.6900   -0.5320    1.4190 C   0  0  0  0  0  0  0  0  0  0  0  0
   -2.7590   -0.6630    1.9770 H   0  0  0  0  0  0  0  0  0  0  0  0
   -4.2830   -1.4380    1.5850 H   0  0  0  0  0  0  0  0  0  0  0  0
   -4.2300    0.2940    1.8920 H   0  0  0  0  0  0  0  0  0  0  0  0
    1.0080   -0.8730    1.7030 C   0  0  0  0  0  0  0  0  0  0  0  0
    2.0160   -0.8950    2.1260 H   0  0  0  0  0  0  0  0  0  0  0  0
    0.5600   -1.8470    1.9250 H   0  0  0  0  0  0  0  0  0  0  0  0
    0.4510   -0.1230    2.2700 H   0  0  0  0  0  0  0  0  0  0  0  0
    7.5770   -0.1020    0.0860 C   0  0  0  0  0  0  0  0  0  0  0  0
    7.9120   -1.1120   -0.1610 H   0  0  0  0  0  0  0  0  0  0  0  0
    7.5030    0.0250    1.1690 H   0  0  0  0  0  0  0  0  0  0  0  0
    8.3090    0.6170   -0.2940 H   0  0  0  0  0  0  0  0  0  0  0  0
   -2.4280    0.9880   -1.5010 H   0  0  0  0  0  0  0  0  0  0  0  0
   -1.2610    0.7420    1.2920 H   0  0  0  0  0  0  0  0  0  0  0  0
   -0.3710   -0.2850   -1.4530 H   0  0  0  0  0  0  0  0  0  0  0  0
    1.7410    0.8440   -1.2670 H   0  0  0  0  0  0  0  0  0  0  0  0
   -4.6290    0.0920   -1.8660 H   0  0  0  0  0  0  0  0  0  0  0  0
    3.9800   -0.3540   -1.5790 H   0  0  0  0  0  0  0  0  0  0  0  0
  1  3  1  0  0  0  0
  1  6  1  0  0  0  0
  1  9  1  0  0  0  0
  1 42  1  0  0  0  0
  2  4  1  0  0  0  0
  2  7  1  0  0  0  0
  2 18  1  0  0  0  0
  2 46  1  0  0  0  0
  3  5  1  0  0  0  0
  3 15  1  0  0  0  0
  3 54  1  0  0  0  0
  4  5  1  0  0  0  0
  4 12  1  0  0  0  0
  4 56  1  0  0  0  0
  5 24  1  0  0  0  0
  5 55  1  0  0  0  0
  6  8  1  0  0  0  0
  6 21  1  0  0  0  0
  6 58  1  0  0  0  0
  7 28  1  0  0  0  0
  7 31  1  0  0  0  0
  7 57  1  0  0  0  0
  8 35  2  0  0  0  0
  8 41  1  0  0  0  0
  9 10  1  0  0  0  0
  9 11  1  0  0  0  0
  9 12  1  0  0  0  0
 12 13  1  0  0  0  0
 12 14  1  0  0  0  0
 15 16  1  0  0  0  0
 15 17  1  0  0  0  0
 15 21  1  0  0  0  0
 18 19  1  0  0  0  0
 18 20  1  0  0  0  0
 18 38  1  0  0  0  0
 21 22  1  0  0  0  0
 21 23  1  0  0  0  0
 24 25  1  0  0  0  0
 24 26  1  0  0  0  0
 24 31  1  0  0  0  0
 27 34  1  0  0  0  0
 27 37  2  0  0  0  0
 27 50  1  0  0  0  0
 28 29  1  0  0  0  0
 28 30  1  0  0  0  0
 28 36  1  0  0  0  0
 31 32  1  0  0  0  0
 31 33  1  0  0  0  0
 34 36  1  0  0  0  0
 36 38  1  0  0  0  0
 36 59  1  0  0  0  0
 38 39  1  0  0  0  0
 38 40  1  0  0  0  0
 42 43  1  0  0  0  0
 42 44  1  0  0  0  0
 42 45  1  0  0  0  0
 46 47  1  0  0  0  0
 46 48  1  0  0  0  0
 46 49  1  0  0  0  0
 50 51  1  0  0  0  0
 50 52  1  0  0  0  0
 50 53  1  0  0  0  0
M  CHG  1  41  -1
M  END
>  <IDNUMBER>
AO-774/41465390

>  <NAME>
3-(acetyloxy)androstane-17-carboxylic acid

>  <ADD_INFO>
http://www.specs.net/enter.php?specsid=AO-774/41465390

>  <H_ACCEPTORS>
4

>  <H_DONORS>
1

>  <ROTATABLE_BONDS>
3

>  <LOGP>
5.3000002

>  <LOGS>
-5.98

>  <TPSA>
63.599998

>  <PRICE>
N06

$$$$
AO-774/41465395
  MOE2011           3D

 63 67  0  0  1  0  0  0  0  0999 V2000
   -1.8110    1.5790    0.1070 C   0  0  2  0  0  0  0  0  0  0  0  0
   -3.3180    2.3340    0.1640 C   0  0  2  0  0  0  0  0  0  0  0  0
   -2.6220    0.6400   -0.5360 C   0  0  1  0  0  0  0  0  0  0  0  0
   -2.4340    2.2690    1.2320 O   0  0  0  0  0  0  0  0  0  0  0  0
   -3.4160   -0.4210   -1.0620 C   0  0  2  0  0  0  0  0  0  0  0  0
   -0.3670    1.5290    0.3410 C   0  0  1  0  0  0  0  0  0  0  0  0
   -4.4690    0.9460   -0.3190 C   0  0  1  0  0  0  0  0  0  0  0  0
    1.4290   -0.1880    1.0570 C   0  0  2  0  0  0  0  0  0  0  0  0
   -0.0490    0.0300    0.5530 C   0  0  1  0  0  0  0  0  0  0  0  0
   -3.9220   -1.7980   -0.6800 C   0  0  0  0  0  0  0  0  0  0  0  0
    2.3420    1.0000    0.5770 C   0  0  2  0  0  0  0  0  0  0  0  0
   -2.6430   -0.1770    1.0060 C   0  0  0  0  0  0  0  0  0  0  0  0
   -3.0000    0.4170    1.8610 H   0  0  0  0  0  0  0  0  0  0  0  0
   -3.2770   -1.0500    1.1610 H   0  0  0  0  0  0  0  0  0  0  0  0
   -1.1820   -0.6640    1.3660 C   0  0  0  0  0  0  0  0  0  0  0  0
   -1.1180   -1.7470    1.2040 H   0  0  0  0  0  0  0  0  0  0  0  0
   -1.0560   -0.4950    2.4400 H   0  0  0  0  0  0  0  0  0  0  0  0
    0.4950    2.1020   -0.7850 C   0  0  0  0  0  0  0  0  0  0  0  0
    0.0470    1.9360   -1.7700 H   0  0  0  0  0  0  0  0  0  0  0  0
    0.5500    3.1910   -0.6640 H   0  0  0  0  0  0  0  0  0  0  0  0
    1.9260   -1.5480    0.4860 C   0  0  0  0  0  0  0  0  0  0  0  0
    1.3890   -2.3770    0.9650 H   0  0  0  0  0  0  0  0  0  0  0  0
    1.6850   -1.6120   -0.5840 H   0  0  0  0  0  0  0  0  0  0  0  0
    6.6170   -0.5030   -0.6170 C   0  0  0  0  0  0  0  0  0  0  0  0
    1.9140    1.5110   -0.8080 C   0  0  0  0  0  0  0  0  0  0  0  0
    2.6080    2.2780   -1.1730 H   0  0  0  0  0  0  0  0  0  0  0  0
    1.9510    0.6920   -1.5370 H   0  0  0  0  0  0  0  0  0  0  0  0
    3.8470    0.6840    0.6230 C   0  0  0  0  0  0  0  0  0  0  0  0
    4.1850    0.6740    1.6680 H   0  0  0  0  0  0  0  0  0  0  0  0
    4.4180    1.4990    0.1630 H   0  0  0  0  0  0  0  0  0  0  0  0
    5.6220   -0.9110    0.2060 O   0  0  0  0  0  0  0  0  0  0  0  0
   -3.2190   -2.8010   -0.6860 O   0  0  0  0  0  0  0  0  0  0  0  0
    4.2170   -0.6470   -0.0250 C   0  0  1  0  0  0  0  0  0  0  0  0
    7.7960   -0.6590   -0.3100 O   0  0  0  0  0  0  0  0  0  0  0  0
   -5.2510    0.5880    0.8080 O   0  0  0  0  0  0  0  0  0  0  0  0
   -5.6990   -0.2470    0.5720 H   0  0  0  0  0  0  0  0  0  0  0  0
   -2.6380    1.4380   -2.0010 C   0  0  0  0  0  0  0  0  0  0  0  0
   -3.6100    1.5640   -2.4990 H   0  0  0  0  0  0  0  0  0  0  0  0
   -1.9890    0.8750   -2.6910 H   0  0  0  0  0  0  0  0  0  0  0  0
   -2.1910    2.4440   -1.9860 H   0  0  0  0  0  0  0  0  0  0  0  0
    3.4260   -1.7780    0.6270 C   0  0  0  0  0  0  0  0  0  0  0  0
    3.7000   -2.7310    0.1570 H   0  0  0  0  0  0  0  0  0  0  0  0
    3.7080   -1.8840    1.6820 H   0  0  0  0  0  0  0  0  0  0  0  0
   -5.2610   -1.7760   -0.4190 O   0  0  0  0  0  0  0  0  0  0  0  0
    1.5030   -0.2420    2.6010 C   0  0  0  0  0  0  0  0  0  0  0  0
    2.5350   -0.2740    2.9630 H   0  0  0  0  0  0  0  0  0  0  0  0
    1.0060   -1.1330    3.0000 H   0  0  0  0  0  0  0  0  0  0  0  0
    1.0310    0.6400    3.0480 H   0  0  0  0  0  0  0  0  0  0  0  0
    6.2240    0.1160   -1.9250 C   0  0  0  0  0  0  0  0  0  0  0  0
    5.7010   -0.6140   -2.5470 H   0  0  0  0  0  0  0  0  0  0  0  0
    7.1310    0.4180   -2.4600 H   0  0  0  0  0  0  0  0  0  0  0  0
    5.6230    1.0140   -1.7700 H   0  0  0  0  0  0  0  0  0  0  0  0
   -5.8170   -3.0580   -0.1110 C   0  0  0  0  0  0  0  0  0  0  0  0
   -5.3410   -3.4760    0.7820 H   0  0  0  0  0  0  0  0  0  0  0  0
   -5.7090   -3.7350   -0.9640 H   0  0  0  0  0  0  0  0  0  0  0  0
   -6.8830   -2.9230    0.0940 H   0  0  0  0  0  0  0  0  0  0  0  0
   -0.1200    2.0680    1.2660 H   0  0  0  0  0  0  0  0  0  0  0  0
   -3.6720   -0.4120   -2.1320 H   0  0  0  0  0  0  0  0  0  0  0  0
   -0.1170   -0.4270   -0.4480 H   0  0  0  0  0  0  0  0  0  0  0  0
    2.2020    1.8450    1.2670 H   0  0  0  0  0  0  0  0  0  0  0  0
   -3.4950    3.2710   -0.3450 H   0  0  0  0  0  0  0  0  0  0  0  0
   -5.1290    1.3540   -1.0970 H   0  0  0  0  0  0  0  0  0  0  0  0
    3.9950   -0.6390   -1.0960 H   0  0  0  0  0  0  0  0  0  0  0  0
  1  2  1  0  0  0  0
  1  3  1  0  0  0  0
  1  4  1  0  0  0  0
  1  6  1  0  0  0  0
  2  4  1  0  0  0  0
  2  7  1  0  0  0  0
  2 61  1  0  0  0  0
  3  5  1  0  0  0  0
  3 12  1  0  0  0  0
  3 37  1  0  0  0  0
  5  7  1  0  0  0  0
  5 10  1  0  0  0  0
  5 58  1  0  0  0  0
  6  9  1  0  0  0  0
  6 18  1  0  0  0  0
  6 57  1  0  0  0  0
  7 35  1  0  0  0  0
  7 62  1  0  0  0  0
  8  9  1  0  0  0  0
  8 11  1  0  0  0  0
  8 21  1  0  0  0  0
  8 45  1  0  0  0  0
  9 15  1  0  0  0  0
  9 59  1  0  0  0  0
 10 32  2  0  0  0  0
 10 44  1  0  0  0  0
 11 25  1  0  0  0  0
 11 28  1  0  0  0  0
 11 60  1  0  0  0  0
 12 13  1  0  0  0  0
 12 14  1  0  0  0  0
 12 15  1  0  0  0  0
 15 16  1  0  0  0  0
 15 17  1  0  0  0  0
 18 19  1  0  0  0  0
 18 20  1  0  0  0  0
 18 25  1  0  0  0  0
 21 22  1  0  0  0  0
 21 23  1  0  0  0  0
 21 41  1  0  0  0  0
 24 31  1  0  0  0  0
 24 34  2  0  0  0  0
 24 49  1  0  0  0  0
 25 26  1  0  0  0  0
 25 27  1  0  0  0  0
 28 29  1  0  0  0  0
 28 30  1  0  0  0  0
 28 33  1  0  0  0  0
 31 33  1  0  0  0  0
 33 41  1  0  0  0  0
 33 63  1  0  0  0  0
 35 36  1  0  0  0  0
 37 38  1  0  0  0  0
 37 39  1  0  0  0  0
 37 40  1  0  0  0  0
 41 42  1  0  0  0  0
 41 43  1  0  0  0  0
 44 53  1  0  0  0  0
 45 46  1  0  0  0  0
 45 47  1  0  0  0  0
 45 48  1  0  0  0  0
 49 50  1  0  0  0  0
 49 51  1  0  0  0  0
 49 52  1  0  0  0  0
 53 54  1  0  0  0  0
 53 55  1  0  0  0  0
 53 56  1  0  0  0  0
M  END
>  <IDNUMBER>
AO-774/41465395

>  <NAME>
methyl 7-(acetyloxy)-2-hydroxy-9a,11a-dimethylhexadecahydronaphtho[1',2':6,7]indeno[1,7a-b]oxirene-1-carboxylate

>  <ADD_INFO>
http://www.specs.net/enter.php?specsid=AO-774/41465395

>  <H_ACCEPTORS>
6

>  <H_DONORS>
1

>  <ROTATABLE_BONDS>
4

>  <LOGP>
4.0999999

>  <LOGS>
-5.1599998

>  <TPSA>
85.360001

>  <PRICE>
N06

$$$$
AO-774/41465396
  MOE2011           3D

 62 65  0  0  1  0  0  0  0  0999 V2000
   -2.8240   -0.4170   -0.0440 C   0  0  1  0  0  0  0  0  0  0  0  0
   -2.0630    0.7320    0.6680 C   0  0  1  0  0  0  0  0  0  0  0  0
   -0.6720    0.3300    1.2030 C   0  0  1  0  0  0  0  0  0  0  0  0
    1.6340   -0.7910    0.7370 C   0  0  2  0  0  0  0  0  0  0  0  0
   -3.9410    0.3130   -0.8470 C   0  0  2  0  0  0  0  0  0  0  0  0
   -2.1450    1.8260   -0.3910 C   0  0  0  0  0  0  0  0  0  0  0  0
    0.2210   -0.3810    0.1530 C   0  0  1  0  0  0  0  0  0  0  0  0
   -3.2800    1.6020   -1.3620 C   0  0  0  0  0  0  0  0  0  0  0  0
   -3.9510    2.4650   -1.3690 H   0  0  0  0  0  0  0  0  0  0  0  0
   -2.8560    1.4550   -2.3600 H   0  0  0  0  0  0  0  0  0  0  0  0
    2.3140    0.4400    1.4190 C   0  0  2  0  0  0  0  0  0  0  0  0
   -1.8940   -1.1550   -1.0450 C   0  0  0  0  0  0  0  0  0  0  0  0
   -2.4060   -2.0440   -1.4370 H   0  0  0  0  0  0  0  0  0  0  0  0
   -1.6870   -0.5260   -1.9190 H   0  0  0  0  0  0  0  0  0  0  0  0
   -5.1720    0.6780   -0.0220 C   0  0  0  0  0  0  0  0  0  0  0  0
   -0.5510   -1.5730   -0.4530 C   0  0  0  0  0  0  0  0  0  0  0  0
    0.0320   -2.0360   -1.2560 H   0  0  0  0  0  0  0  0  0  0  0  0
   -0.7210   -2.3500    0.2990 H   0  0  0  0  0  0  0  0  0  0  0  0
    0.0440    1.5030    1.8890 C   0  0  0  0  0  0  0  0  0  0  0  0
    0.1950    2.3340    1.1970 H   0  0  0  0  0  0  0  0  0  0  0  0
   -0.5830    1.8900    2.7020 H   0  0  0  0  0  0  0  0  0  0  0  0
    2.5910   -1.3380   -0.3630 C   0  0  0  0  0  0  0  0  0  0  0  0
    3.4780   -1.7730    0.1190 H   0  0  0  0  0  0  0  0  0  0  0  0
    2.1300   -2.1670   -0.9100 H   0  0  0  0  0  0  0  0  0  0  0  0
    6.1770    0.3800   -0.5670 C   0  0  0  0  0  0  0  0  0  0  0  0
   -1.4110    2.8020   -0.4650 O   0  0  0  0  0  0  0  0  0  0  0  0
    1.3990    1.1010    2.4610 C   0  0  0  0  0  0  0  0  0  0  0  0
    1.2440    0.4180    3.3050 H   0  0  0  0  0  0  0  0  0  0  0  0
    1.8900    1.9870    2.8810 H   0  0  0  0  0  0  0  0  0  0  0  0
    2.8190    1.4860    0.3980 C   0  0  0  0  0  0  0  0  0  0  0  0
    3.3610    2.2700    0.9430 H   0  0  0  0  0  0  0  0  0  0  0  0
    1.9780    1.9730   -0.1080 H   0  0  0  0  0  0  0  0  0  0  0  0
    4.9510    0.4360    0.0070 O   0  0  0  0  0  0  0  0  0  0  0  0
   -5.1350    1.5820    0.8100 O   0  0  0  0  0  0  0  0  0  0  0  0
    3.7470    0.8910   -0.6630 C   0  0  1  0  0  0  0  0  0  0  0  0
    7.1320   -0.1220    0.0210 O   0  0  0  0  0  0  0  0  0  0  0  0
   -3.3870   -1.4280    0.9700 C   0  0  0  0  0  0  0  0  0  0  0  0
   -2.5920   -1.9400    1.5220 H   0  0  0  0  0  0  0  0  0  0  0  0
   -3.9830   -2.1970    0.4690 H   0  0  0  0  0  0  0  0  0  0  0  0
   -4.0230   -0.9440    1.7190 H   0  0  0  0  0  0  0  0  0  0  0  0
    3.0700   -0.2860   -1.3630 C   0  0  0  0  0  0  0  0  0  0  0  0
    2.2290    0.0710   -1.9660 H   0  0  0  0  0  0  0  0  0  0  0  0
    3.7740   -0.7690   -2.0500 H   0  0  0  0  0  0  0  0  0  0  0  0
   -6.3060   -0.0410   -0.1980 O   0  0  0  0  0  0  0  0  0  0  0  0
    1.4970   -1.9310    1.7840 C   0  0  0  0  0  0  0  0  0  0  0  0
    2.4580   -2.1270    2.2750 H   0  0  0  0  0  0  0  0  0  0  0  0
    1.1880   -2.8720    1.3160 H   0  0  0  0  0  0  0  0  0  0  0  0
    0.7760   -1.7010    2.5720 H   0  0  0  0  0  0  0  0  0  0  0  0
    6.3260    0.9780   -1.9340 C   0  0  0  0  0  0  0  0  0  0  0  0
    6.1380    2.0540   -1.8980 H   0  0  0  0  0  0  0  0  0  0  0  0
    5.6710    0.4810   -2.6520 H   0  0  0  0  0  0  0  0  0  0  0  0
    7.3570    0.8320   -2.2740 H   0  0  0  0  0  0  0  0  0  0  0  0
   -6.4620   -1.0390   -1.2180 C   0  0  0  0  0  0  0  0  0  0  0  0
   -7.4650   -1.4630   -1.1160 H   0  0  0  0  0  0  0  0  0  0  0  0
   -5.7360   -1.8450   -1.0880 H   0  0  0  0  0  0  0  0  0  0  0  0
   -6.3830   -0.5820   -2.2080 H   0  0  0  0  0  0  0  0  0  0  0  0
   -2.6590    1.0990    1.5150 H   0  0  0  0  0  0  0  0  0  0  0  0
   -0.8720   -0.4000    1.9990 H   0  0  0  0  0  0  0  0  0  0  0  0
    0.3890    0.3360   -0.6610 H   0  0  0  0  0  0  0  0  0  0  0  0
   -4.2380   -0.2670   -1.7230 H   0  0  0  0  0  0  0  0  0  0  0  0
    3.2010    0.0830    1.9630 H   0  0  0  0  0  0  0  0  0  0  0  0
    3.9880    1.6780   -1.3850 H   0  0  0  0  0  0  0  0  0  0  0  0
  1  2  1  0  0  0  0
  1  5  1  0  0  0  0
  1 12  1  0  0  0  0
  1 37  1  0  0  0  0
  2  3  1  0  0  0  0
  2  6  1  0  0  0  0
  2 57  1  0  0  0  0
  3  7  1  0  0  0  0
  3 19  1  0  0  0  0
  3 58  1  0  0  0  0
  4  7  1  0  0  0  0
  4 11  1  0  0  0  0
  4 22  1  0  0  0  0
  4 45  1  0  0  0  0
  5  8  1  0  0  0  0
  5 15  1  0  0  0  0
  5 60  1  0  0  0  0
  6  8  1  0  0  0  0
  6 26  2  0  0  0  0
  7 16  1  0  0  0  0
  7 59  1  0  0  0  0
  8  9  1  0  0  0  0
  8 10  1  0  0  0  0
 11 27  1  0  0  0  0
 11 30  1  0  0  0  0
 11 61  1  0  0  0  0
 12 13  1  0  0  0  0
 12 14  1  0  0  0  0
 12 16  1  0  0  0  0
 15 34  2  0  0  0  0
 15 44  1  0  0  0  0
 16 17  1  0  0  0  0
 16 18  1  0  0  0  0
 19 20  1  0  0  0  0
 19 21  1  0  0  0  0
 19 27  1  0  0  0  0
 22 23  1  0  0  0  0
 22 24  1  0  0  0  0
 22 41  1  0  0  0  0
 25 33  1  0  0  0  0
 25 36  2  0  0  0  0
 25 49  1  0  0  0  0
 27 28  1  0  0  0  0
 27 29  1  0  0  0  0
 30 31  1  0  0  0  0
 30 32  1  0  0  0  0
 30 35  1  0  0  0  0
 33 35  1  0  0  0  0
 35 41  1  0  0  0  0
 35 62  1  0  0  0  0
 37 38  1  0  0  0  0
 37 39  1  0  0  0  0
 37 40  1  0  0  0  0
 41 42  1  0  0  0  0
 41 43  1  0  0  0  0
 44 53  1  0  0  0  0
 45 46  1  0  0  0  0
 45 47  1  0  0  0  0
 45 48  1  0  0  0  0
 49 50  1  0  0  0  0
 49 51  1  0  0  0  0
 49 52  1  0  0  0  0
 53 54  1  0  0  0  0
 53 55  1  0  0  0  0
 53 56  1  0  0  0  0
M  END
>  <IDNUMBER>
AO-774/41465396

>  <NAME>
methyl 3-(acetyloxy)-15-oxoandrostane-17-carboxylate

>  <ADD_INFO>
http://www.specs.net/enter.php?specsid=AO-774/41465396

>  <H_ACCEPTORS>
5

>  <H_DONORS>
0

>  <ROTATABLE_BONDS>
4

>  <LOGP>
3.54

>  <LOGS>
-5.0700002

>  <TPSA>
69.669998

>  <PRICE>
N06

$$$$
AO-774/41465404
  MOE2011           3D

 61 64  0  0  1  0  0  0  0  0999 V2000
    2.9210    0.6950    0.0700 C   0  0  1  0  0  0  0  0  0  0  0  0
    2.1330   -0.5440    0.5490 C   0  0  3  0  0  0  0  0  0  0  0  0
   -1.6050    0.8280    0.1970 C   0  0  1  0  0  0  0  0  0  0  0  0
    4.1930    0.0610   -0.5600 C   0  0  2  0  0  0  0  0  0  0  0  0
   -2.2680   -0.3870    0.8560 C   0  0  0  0  0  0  0  0  0  0  0  0
   -0.1060    0.5160   -0.2150 C   0  0  2  0  0  0  0  0  0  0  0  0
    0.6460   -0.2730    0.8820 C   0  0  1  0  0  0  0  0  0  0  0  0
    3.6510   -1.1670   -1.3010 C   0  0  2  0  0  0  0  0  0  0  0  0
    2.4020   -1.6150   -0.5310 C   0  0  0  0  0  0  0  0  0  0  0  0
    1.5660   -1.6990   -1.2340 H   0  0  0  0  0  0  0  0  0  0  0  0
    2.5380   -2.6010   -0.0720 H   0  0  0  0  0  0  0  0  0  0  0  0
    2.1240    1.4580   -1.0230 C   0  0  0  0  0  0  0  0  0  0  0  0
    2.6420    2.3920   -1.2730 H   0  0  0  0  0  0  0  0  0  0  0  0
    2.0820    0.8860   -1.9560 H   0  0  0  0  0  0  0  0  0  0  0  0
   -1.5730   -1.4480    1.2990 C   0  0  0  0  0  0  0  0  0  0  0  0
   -2.0960   -2.2900    1.7480 H   0  0  0  0  0  0  0  0  0  0  0  0
   -0.0870   -1.5810    1.2270 C   0  0  0  0  0  0  0  0  0  0  0  0
    0.2840   -1.9490    2.1920 H   0  0  0  0  0  0  0  0  0  0  0  0
    0.1250   -2.3650    0.4920 H   0  0  0  0  0  0  0  0  0  0  0  0
    0.6870    1.7760   -0.6170 C   0  0  0  0  0  0  0  0  0  0  0  0
    0.1980    2.2740   -1.4620 H   0  0  0  0  0  0  0  0  0  0  0  0
    0.7080    2.5020    0.2010 H   0  0  0  0  0  0  0  0  0  0  0  0
   -2.3950    1.1950   -1.0960 C   0  0  0  0  0  0  0  0  0  0  0  0
   -2.0510    2.1570   -1.4940 H   0  0  0  0  0  0  0  0  0  0  0  0
   -2.1910    0.4480   -1.8750 H   0  0  0  0  0  0  0  0  0  0  0  0
    5.2980   -0.3480    0.4210 C   0  0  0  0  0  0  0  0  0  0  0  0
   -3.7740   -0.3580    0.9980 C   0  0  0  0  0  0  0  0  0  0  0  0
   -4.0600    0.3790    1.7580 H   0  0  0  0  0  0  0  0  0  0  0  0
   -4.1580   -1.3120    1.3800 H   0  0  0  0  0  0  0  0  0  0  0  0
   -6.8100   -0.8070   -0.1450 C   0  0  0  0  0  0  0  0  0  0  0  0
   -5.8790    0.1750   -0.0950 O   0  0  0  0  0  0  0  0  0  0  0  0
   -4.4640   -0.0320   -0.3280 C   0  0  1  0  0  0  0  0  0  0  0  0
   -7.9790   -0.5860    0.1620 O   0  0  0  0  0  0  0  0  0  0  0  0
    5.0700   -0.8570    1.5190 O   0  0  0  0  0  0  0  0  0  0  0  0
    3.2470    1.6640    1.2210 C   0  0  0  0  0  0  0  0  0  0  0  0
    2.3470    2.1290    1.6330 H   0  0  0  0  0  0  0  0  0  0  0  0
    3.9080    2.4670    0.8760 H   0  0  0  0  0  0  0  0  0  0  0  0
    3.7410    1.1650    2.0600 H   0  0  0  0  0  0  0  0  0  0  0  0
    4.6080   -2.2010   -1.4300 O   0  0  0  0  0  0  0  0  0  0  0  0
    4.1640   -2.9720   -1.8250 H   0  0  0  0  0  0  0  0  0  0  0  0
   -3.9100    1.2700   -0.9080 C   0  0  0  0  0  0  0  0  0  0  0  0
   -4.3920    1.4730   -1.8730 H   0  0  0  0  0  0  0  0  0  0  0  0
   -4.1790    2.1180   -0.2660 H   0  0  0  0  0  0  0  0  0  0  0  0
   -1.6830    2.0090    1.1960 C   0  0  0  0  0  0  0  0  0  0  0  0
   -1.3750    2.9510    0.7320 H   0  0  0  0  0  0  0  0  0  0  0  0
   -1.0470    1.8400    2.0720 H   0  0  0  0  0  0  0  0  0  0  0  0
   -2.6980    2.1750    1.5710 H   0  0  0  0  0  0  0  0  0  0  0  0
   -6.3670   -2.1600   -0.6120 C   0  0  0  0  0  0  0  0  0  0  0  0
   -6.0350   -2.1110   -1.6520 H   0  0  0  0  0  0  0  0  0  0  0  0
   -7.2190   -2.8470   -0.5680 H   0  0  0  0  0  0  0  0  0  0  0  0
   -5.5890   -2.5640    0.0380 H   0  0  0  0  0  0  0  0  0  0  0  0
    6.7160   -0.1120   -0.0350 C   0  0  0  0  0  0  0  0  0  0  0  0
    6.8970   -0.6360   -0.9760 H   0  0  0  0  0  0  0  0  0  0  0  0
    7.4130   -0.4900    0.7190 H   0  0  0  0  0  0  0  0  0  0  0  0
    6.8830    0.9610   -0.1620 H   0  0  0  0  0  0  0  0  0  0  0  0
    0.6420    0.3470    1.7900 H   0  0  0  0  0  0  0  0  0  0  0  0
   -0.1420   -0.1330   -1.1030 H   0  0  0  0  0  0  0  0  0  0  0  0
    4.6480    0.7640   -1.2700 H   0  0  0  0  0  0  0  0  0  0  0  0
    2.5880   -0.9180    1.4770 H   0  0  0  0  0  0  0  0  0  0  0  0
    3.3610   -0.8810   -2.3190 H   0  0  0  0  0  0  0  0  0  0  0  0
   -4.3000   -0.8310   -1.0590 H   0  0  0  0  0  0  0  0  0  0  0  0
  1  2  1  0  0  0  0
  1  4  1  0  0  0  0
  1 12  1  0  0  0  0
  1 35  1  0  0  0  0
  2  7  1  0  0  0  0
  2  9  1  0  0  0  0
  2 59  1  0  0  0  0
  3  5  1  0  0  0  0
  3  6  1  0  0  0  0
  3 23  1  0  0  0  0
  3 44  1  0  0  0  0
  4  8  1  0  0  0  0
  4 26  1  0  0  0  0
  4 58  1  0  0  0  0
  5 15  2  0  0  0  0
  5 27  1  0  0  0  0
  6  7  1  0  0  0  0
  6 20  1  0  0  0  0
  6 57  1  0  0  0  0
  7 17  1  0  0  0  0
  7 56  1  0  0  0  0
  8  9  1  0  0  0  0
  8 39  1  0  0  0  0
  8 60  1  0  0  0  0
  9 10  1  0  0  0  0
  9 11  1  0  0  0  0
 12 13  1  0  0  0  0
 12 14  1  0  0  0  0
 12 20  1  0  0  0  0
 15 16  1  0  0  0  0
 15 17  1  0  0  0  0
 17 18  1  0  0  0  0
 17 19  1  0  0  0  0
 20 21  1  0  0  0  0
 20 22  1  0  0  0  0
 23 24  1  0  0  0  0
 23 25  1  0  0  0  0
 23 41  1  0  0  0  0
 26 34  2  0  0  0  0
 26 52  1  0  0  0  0
 27 28  1  0  0  0  0
 27 29  1  0  0  0  0
 27 32  1  0  0  0  0
 30 31  1  0  0  0  0
 30 33  2  0  0  0  0
 30 48  1  0  0  0  0
 31 32  1  0  0  0  0
 32 41  1  0  0  0  0
 32 61  1  0  0  0  0
 35 36  1  0  0  0  0
 35 37  1  0  0  0  0
 35 38  1  0  0  0  0
 39 40  1  0  0  0  0
 41 42  1  0  0  0  0
 41 43  1  0  0  0  0
 44 45  1  0  0  0  0
 44 46  1  0  0  0  0
 44 47  1  0  0  0  0
 48 49  1  0  0  0  0
 48 50  1  0  0  0  0
 48 51  1  0  0  0  0
 52 53  1  0  0  0  0
 52 54  1  0  0  0  0
 52 55  1  0  0  0  0
M  END
>  <IDNUMBER>
AO-774/41465404

>  <NAME>
3,16-Dihydroxypregn-5-en-20-one, Derivative of

>  <ADD_INFO>
http://www.specs.net/enter.php?specsid=AO-774/41465404

>  <H_ACCEPTORS>
4

>  <H_DONORS>
1

>  <ROTATABLE_BONDS>
3

>  <LOGP>
3.3599999

>  <LOGS>
-4.29

>  <TPSA>
63.599998

>  <PRICE>
N06

$$$$
AO-774/41465405
  MOE2011           3D

 61 65  0  0  1  0  0  0  0  0999 V2000
   -4.1260   -0.4270    0.5420 C   0  0  2  0  0  0  0  0  0  0  0  0
   -2.9240    0.2250   -0.1700 C   0  0  2  0  0  0  0  0  0  0  0  0
   -3.9080   -0.7560    1.9370 O   0  0  0  0  0  0  0  0  0  0  0  0
   -3.6960   -1.7950    0.9930 C   0  0  2  0  0  0  0  0  0  0  0  0
   -2.0210   -1.0120   -0.5190 C   0  0  3  0  0  0  0  0  0  0  0  0
    1.5900    0.6960   -0.2710 C   0  0  1  0  0  0  0  0  0  0  0  0
    2.3690   -0.5410   -0.7360 C   0  0  0  0  0  0  0  0  0  0  0  0
    0.1060    0.3250    0.1490 C   0  0  2  0  0  0  0  0  0  0  0  0
   -0.5440   -0.6760   -0.8350 C   0  0  1  0  0  0  0  0  0  0  0  0
   -2.2640   -2.0170    0.6290 C   0  0  0  0  0  0  0  0  0  0  0  0
   -1.6120   -1.8260    1.4880 H   0  0  0  0  0  0  0  0  0  0  0  0
   -2.1070   -3.0470    0.2940 H   0  0  0  0  0  0  0  0  0  0  0  0
   -2.1990    1.1970    0.7890 C   0  0  0  0  0  0  0  0  0  0  0  0
   -2.7960    2.1100    0.9110 H   0  0  0  0  0  0  0  0  0  0  0  0
   -2.1090    0.7700    1.7950 H   0  0  0  0  0  0  0  0  0  0  0  0
    1.7730   -1.7090   -1.0310 C   0  0  0  0  0  0  0  0  0  0  0  0
    2.3750   -2.5600   -1.3430 H   0  0  0  0  0  0  0  0  0  0  0  0
    0.3020   -1.9550   -0.9550 C   0  0  0  0  0  0  0  0  0  0  0  0
   -0.0130   -2.5050   -1.8500 H   0  0  0  0  0  0  0  0  0  0  0  0
    0.1420   -2.6200   -0.1000 H   0  0  0  0  0  0  0  0  0  0  0  0
   -0.7910    1.5660    0.3360 C   0  0  0  0  0  0  0  0  0  0  0  0
   -0.3580    2.2340    1.0880 H   0  0  0  0  0  0  0  0  0  0  0  0
   -0.8600    2.1440   -0.5900 H   0  0  0  0  0  0  0  0  0  0  0  0
    2.3070    1.3040    0.9720 C   0  0  0  0  0  0  0  0  0  0  0  0
    1.8760    2.2810    1.2220 H   0  0  0  0  0  0  0  0  0  0  0  0
    2.1360    0.6600    1.8460 H   0  0  0  0  0  0  0  0  0  0  0  0
   -5.5720   -0.1210    0.2700 C   0  0  3  0  0  0  0  0  0  0  0  0
    3.8720   -0.4080   -0.8490 C   0  0  0  0  0  0  0  0  0  0  0  0
    4.1230    0.2360   -1.7010 H   0  0  0  0  0  0  0  0  0  0  0  0
    4.3420   -1.3710   -1.0820 H   0  0  0  0  0  0  0  0  0  0  0  0
    6.8950   -0.4350    0.4260 C   0  0  0  0  0  0  0  0  0  0  0  0
    5.8890    0.4440    0.2000 O   0  0  0  0  0  0  0  0  0  0  0  0
    4.4890    0.1580    0.4310 C   0  0  1  0  0  0  0  0  0  0  0  0
    8.0520   -0.1660    0.1140 O   0  0  0  0  0  0  0  0  0  0  0  0
   -3.2700    0.9450   -1.4860 C   0  0  0  0  0  0  0  0  0  0  0  0
   -2.3770    1.3150   -1.9980 H   0  0  0  0  0  0  0  0  0  0  0  0
   -3.9190    1.8080   -1.3210 H   0  0  0  0  0  0  0  0  0  0  0  0
   -3.7720    0.2770   -2.1930 H   0  0  0  0  0  0  0  0  0  0  0  0
    3.8160    1.4780    0.8070 C   0  0  0  0  0  0  0  0  0  0  0  0
    4.2500    1.8540    1.7420 H   0  0  0  0  0  0  0  0  0  0  0  0
    4.0380    2.2460    0.0560 H   0  0  0  0  0  0  0  0  0  0  0  0
    1.6090    1.7270   -1.4270 C   0  0  0  0  0  0  0  0  0  0  0  0
    1.2140    2.6970   -1.1090 H   0  0  0  0  0  0  0  0  0  0  0  0
    1.0170    1.3850   -2.2830 H   0  0  0  0  0  0  0  0  0  0  0  0
    2.6200    1.9210   -1.8000 H   0  0  0  0  0  0  0  0  0  0  0  0
   -5.8710   -0.3200   -1.1060 O   0  0  0  0  0  0  0  0  0  0  0  0
   -6.8130   -0.1200   -1.2320 H   0  0  0  0  0  0  0  0  0  0  0  0
    6.5460   -1.7320    1.0910 C   0  0  0  0  0  0  0  0  0  0  0  0
    6.1810   -1.5510    2.1050 H   0  0  0  0  0  0  0  0  0  0  0  0
    7.4490   -2.3460    1.1670 H   0  0  0  0  0  0  0  0  0  0  0  0
    5.8200   -2.2930    0.4980 H   0  0  0  0  0  0  0  0  0  0  0  0
   -5.9790    1.2770    0.7140 C   0  0  0  0  0  0  0  0  0  0  0  0
   -5.7590    1.4360    1.7750 H   0  0  0  0  0  0  0  0  0  0  0  0
   -7.0520    1.4290    0.5550 H   0  0  0  0  0  0  0  0  0  0  0  0
   -5.4700    2.0570    0.1430 H   0  0  0  0  0  0  0  0  0  0  0  0
   -0.5450   -0.1990   -1.8250 H   0  0  0  0  0  0  0  0  0  0  0  0
    0.1580   -0.1820    1.1240 H   0  0  0  0  0  0  0  0  0  0  0  0
   -4.3600   -2.6410    0.9370 H   0  0  0  0  0  0  0  0  0  0  0  0
   -2.4390   -1.4920   -1.4180 H   0  0  0  0  0  0  0  0  0  0  0  0
   -6.1940   -0.8370    0.8210 H   0  0  0  0  0  0  0  0  0  0  0  0
    4.3630   -0.5420    1.2650 H   0  0  0  0  0  0  0  0  0  0  0  0
  1  2  1  0  0  0  0
  1  3  1  0  0  0  0
  1  4  1  0  0  0  0
  1 27  1  0  0  0  0
  2  5  1  0  0  0  0
  2 13  1  0  0  0  0
  2 35  1  0  0  0  0
  3  4  1  0  0  0  0
  4 10  1  0  0  0  0
  4 58  1  0  0  0  0
  5  9  1  0  0  0  0
  5 10  1  0  0  0  0
  5 59  1  0  0  0  0
  6  7  1  0  0  0  0
  6  8  1  0  0  0  0
  6 24  1  0  0  0  0
  6 42  1  0  0  0  0
  7 16  2  0  0  0  0
  7 28  1  0  0  0  0
  8  9  1  0  0  0  0
  8 21  1  0  0  0  0
  8 57  1  0  0  0  0
  9 18  1  0  0  0  0
  9 56  1  0  0  0  0
 10 11  1  0  0  0  0
 10 12  1  0  0  0  0
 13 14  1  0  0  0  0
 13 15  1  0  0  0  0
 13 21  1  0  0  0  0
 16 17  1  0  0  0  0
 16 18  1  0  0  0  0
 18 19  1  0  0  0  0
 18 20  1  0  0  0  0
 21 22  1  0  0  0  0
 21 23  1  0  0  0  0
 24 25  1  0  0  0  0
 24 26  1  0  0  0  0
 24 39  1  0  0  0  0
 27 46  1  0  0  0  0
 27 52  1  0  0  0  0
 27 60  1  0  0  0  0
 28 29  1  0  0  0  0
 28 30  1  0  0  0  0
 28 33  1  0  0  0  0
 31 32  1  0  0  0  0
 31 34  2  0  0  0  0
 31 48  1  0  0  0  0
 32 33  1  0  0  0  0
 33 39  1  0  0  0  0
 33 61  1  0  0  0  0
 35 36  1  0  0  0  0
 35 37  1  0  0  0  0
 35 38  1  0  0  0  0
 39 40  1  0  0  0  0
 39 41  1  0  0  0  0
 42 43  1  0  0  0  0
 42 44  1  0  0  0  0
 42 45  1  0  0  0  0
 46 47  1  0  0  0  0
 48 49  1  0  0  0  0
 48 50  1  0  0  0  0
 48 51  1  0  0  0  0
 52 53  1  0  0  0  0
 52 54  1  0  0  0  0
 52 55  1  0  0  0  0
M  END
>  <IDNUMBER>
AO-774/41465405

>  <NAME>
6b-(1-hydroxyethyl)-4a,6a-dimethyl-2,3,4,4a,4b,5,6,6a,6b,7a,8,8a,8b,9-tetradecahydro-1H-naphtho[2',1':4,5]indeno[1,2-b]oxiren-2-yl acetate

>  <ADD_INFO>
http://www.specs.net/enter.php?specsid=AO-774/41465405

>  <H_ACCEPTORS>
4

>  <H_DONORS>
1

>  <ROTATABLE_BONDS>
3

>  <LOGP>
4.7800002

>  <LOGS>
-5.5

>  <TPSA>
59.060001

>  <PRICE>
N06

$$$$
AO-774/41465416
  MOE2011           3D

 65 68  0  0  1  0  0  0  0  0999 V2000
    1.5200   -1.6940    0.1700 C   0  0  0  0  0  0  0  0  0  0  0  0
    6.6470    1.3630   -0.0380 S   0  0  0  0  0  0  0  0  0  0  0  0
    2.5760   -0.6050    0.3100 C   0  0  2  0  0  0  0  0  0  0  0  0
   -1.8850    0.2010    0.3990 C   0  0  2  0  0  0  0  0  0  0  0  0
    0.1330   -1.4150    0.7010 C   0  0  1  0  0  0  0  0  0  0  0  0
   -0.3770   -0.0880    0.0690 C   0  0  2  0  0  0  0  0  0  0  0  0
    2.0260   -2.7890   -0.4150 C   0  0  0  0  0  0  0  0  0  0  0  0
    1.4930   -3.7080   -0.6100 H   0  0  0  0  0  0  0  0  0  0  0  0
   -2.7780   -1.0050   -0.0790 C   0  0  1  0  0  0  0  0  0  0  0  0
    2.0090    0.7640   -0.1260 C   0  0  0  0  0  0  0  0  0  0  0  0
    2.6880    1.5720    0.1740 H   0  0  0  0  0  0  0  0  0  0  0  0
    1.9440    0.8160   -1.2210 H   0  0  0  0  0  0  0  0  0  0  0  0
    0.6070    1.0520    0.4290 C   0  0  0  0  0  0  0  0  0  0  0  0
    0.2740    2.0040    0.0030 H   0  0  0  0  0  0  0  0  0  0  0  0
    0.6590    1.1900    1.5140 H   0  0  0  0  0  0  0  0  0  0  0  0
   -2.3310    1.5170   -0.3040 C   0  0  0  0  0  0  0  0  0  0  0  0
   -1.8860    2.3880    0.1920 H   0  0  0  0  0  0  0  0  0  0  0  0
   -1.9570    1.5310   -1.3360 H   0  0  0  0  0  0  0  0  0  0  0  0
   -0.8930   -2.5580    0.5860 C   0  0  0  0  0  0  0  0  0  0  0  0
   -0.4290   -3.5240    0.3720 H   0  0  0  0  0  0  0  0  0  0  0  0
   -1.3800   -2.6910    1.5620 H   0  0  0  0  0  0  0  0  0  0  0  0
    3.6580   -1.1140   -0.6950 C   0  0  2  0  0  0  0  0  0  0  0  0
    5.2140    0.7010   -0.4450 O   0  0  0  0  0  0  0  0  0  0  0  0
    7.6340    0.9930   -1.0300 O   0  0  0  0  0  0  0  0  0  0  0  0
    6.8680    1.1630    1.3790 O   0  0  0  0  0  0  0  0  0  0  0  0
   -6.8340    0.6400    0.1250 C   0  0  0  0  0  0  0  0  0  0  0  0
    3.4740   -2.6340   -0.7460 C   0  0  0  0  0  0  0  0  0  0  0  0
    3.7000   -3.0220   -1.7450 H   0  0  0  0  0  0  0  0  0  0  0  0
    4.0900   -3.1640   -0.0120 H   0  0  0  0  0  0  0  0  0  0  0  0
   -3.6910   -0.6450   -1.2660 C   0  0  0  0  0  0  0  0  0  0  0  0
   -4.3090   -1.5160   -1.5190 H   0  0  0  0  0  0  0  0  0  0  0  0
   -3.0800   -0.4200   -2.1490 H   0  0  0  0  0  0  0  0  0  0  0  0
   -1.9720   -2.2670   -0.4440 C   0  0  0  0  0  0  0  0  0  0  0  0
   -2.6540   -3.1250   -0.5040 H   0  0  0  0  0  0  0  0  0  0  0  0
   -1.5160   -2.1670   -1.4370 H   0  0  0  0  0  0  0  0  0  0  0  0
   -5.6110    0.0770   -0.0200 O   0  0  0  0  0  0  0  0  0  0  0  0
   -4.6020    0.5440   -0.9550 C   0  0  1  0  0  0  0  0  0  0  0  0
   -7.6230    0.2340    0.9740 O   0  0  0  0  0  0  0  0  0  0  0  0
    5.1070   -0.7150   -0.4210 C   0  0  0  0  0  0  0  0  0  0  0  0
    5.7570   -1.1310   -1.1990 H   0  0  0  0  0  0  0  0  0  0  0  0
    5.4500   -1.1020    0.5450 H   0  0  0  0  0  0  0  0  0  0  0  0
   -3.8450    1.7200   -0.3350 C   0  0  0  0  0  0  0  0  0  0  0  0
   -4.0520    2.6220   -0.9240 H   0  0  0  0  0  0  0  0  0  0  0  0
   -4.2130    1.9350    0.6750 H   0  0  0  0  0  0  0  0  0  0  0  0
    6.1840    3.0560   -0.3030 C   0  0  0  0  0  0  0  0  0  0  0  0
    7.0470    3.6840   -0.0710 H   0  0  0  0  0  0  0  0  0  0  0  0
    5.3530    3.3030    0.3600 H   0  0  0  0  0  0  0  0  0  0  0  0
    5.8980    3.1850   -1.3490 H   0  0  0  0  0  0  0  0  0  0  0  0
    3.0760   -0.5480    1.7650 C   0  0  0  0  0  0  0  0  0  0  0  0
    3.8430    0.2230    1.8940 H   0  0  0  0  0  0  0  0  0  0  0  0
    3.5070   -1.5040    2.0820 H   0  0  0  0  0  0  0  0  0  0  0  0
    2.2690   -0.3100    2.4660 H   0  0  0  0  0  0  0  0  0  0  0  0
   -2.0820    0.3880    1.9260 C   0  0  0  0  0  0  0  0  0  0  0  0
   -3.1350    0.5650    2.1740 H   0  0  0  0  0  0  0  0  0  0  0  0
   -1.5150    1.2450    2.3030 H   0  0  0  0  0  0  0  0  0  0  0  0
   -1.7720   -0.4930    2.4930 H   0  0  0  0  0  0  0  0  0  0  0  0
   -7.1930    1.7630   -0.8010 C   0  0  0  0  0  0  0  0  0  0  0  0
   -7.2330    1.4080   -1.8330 H   0  0  0  0  0  0  0  0  0  0  0  0
   -6.4970    2.5970   -0.6910 H   0  0  0  0  0  0  0  0  0  0  0  0
   -8.1900    2.1330   -0.5390 H   0  0  0  0  0  0  0  0  0  0  0  0
   -0.3220   -0.1950   -1.0270 H   0  0  0  0  0  0  0  0  0  0  0  0
    0.2660   -1.2550    1.7800 H   0  0  0  0  0  0  0  0  0  0  0  0
   -3.4380   -1.2930    0.7520 H   0  0  0  0  0  0  0  0  0  0  0  0
    3.4070   -0.7230   -1.6940 H   0  0  0  0  0  0  0  0  0  0  0  0
   -5.0840    0.8430   -1.8910 H   0  0  0  0  0  0  0  0  0  0  0  0
  1  3  1  0  0  0  0
  1  5  1  0  0  0  0
  1  7  2  0  0  0  0
  2 23  1  0  0  0  0
  2 24  2  0  0  0  0
  2 25  2  0  0  0  0
  2 45  1  0  0  0  0
  3 10  1  0  0  0  0
  3 22  1  0  0  0  0
  3 49  1  0  0  0  0
  4  6  1  0  0  0  0
  4  9  1  0  0  0  0
  4 16  1  0  0  0  0
  4 53  1  0  0  0  0
  5  6  1  0  0  0  0
  5 19  1  0  0  0  0
  5 62  1  0  0  0  0
  6 13  1  0  0  0  0
  6 61  1  0  0  0  0
  7  8  1  0  0  0  0
  7 27  1  0  0  0  0
  9 30  1  0  0  0  0
  9 33  1  0  0  0  0
  9 63  1  0  0  0  0
 10 11  1  0  0  0  0
 10 12  1  0  0  0  0
 10 13  1  0  0  0  0
 13 14  1  0  0  0  0
 13 15  1  0  0  0  0
 16 17  1  0  0  0  0
 16 18  1  0  0  0  0
 16 42  1  0  0  0  0
 19 20  1  0  0  0  0
 19 21  1  0  0  0  0
 19 33  1  0  0  0  0
 22 27  1  0  0  0  0
 22 39  1  0  0  0  0
 22 64  1  0  0  0  0
 23 39  1  0  0  0  0
 26 36  1  0  0  0  0
 26 38  2  0  0  0  0
 26 57  1  0  0  0  0
 27 28  1  0  0  0  0
 27 29  1  0  0  0  0
 30 31  1  0  0  0  0
 30 32  1  0  0  0  0
 30 37  1  0  0  0  0
 33 34  1  0  0  0  0
 33 35  1  0  0  0  0
 36 37  1  0  0  0  0
 37 42  1  0  0  0  0
 37 65  1  0  0  0  0
 39 40  1  0  0  0  0
 39 41  1  0  0  0  0
 42 43  1  0  0  0  0
 42 44  1  0  0  0  0
 45 46  1  0  0  0  0
 45 47  1  0  0  0  0
 45 48  1  0  0  0  0
 49 50  1  0  0  0  0
 49 51  1  0  0  0  0
 49 52  1  0  0  0  0
 53 54  1  0  0  0  0
 53 55  1  0  0  0  0
 53 56  1  0  0  0  0
 57 58  1  0  0  0  0
 57 59  1  0  0  0  0
 57 60  1  0  0  0  0
M  END
>  <IDNUMBER>
AO-774/41465416

>  <NAME>
17-{[(methylsulfonyl)oxy]methyl}androst-14-en-3-yl acetate

>  <ADD_INFO>
http://www.specs.net/enter.php?specsid=AO-774/41465416

>  <H_ACCEPTORS>
5

>  <H_DONORS>
0

>  <ROTATABLE_BONDS>
5

>  <LOGP>
4.96

>  <LOGS>
-6.5300002

>  <TPSA>
78.050003

>  <PRICE>
N06

$$$$
AO-774/41465417
  MOE2011           3D

 63 66  0  0  1  0  0  0  0  0999 V2000
    1.8570    0.8190   -0.3430 C   0  0  0  0  0  0  0  0  0  0  0  0
    2.7140   -0.3900   -0.0170 C   0  0  1  0  0  0  0  0  0  0  0  0
   -1.7720   -0.7510   -0.3440 C   0  0  2  0  0  0  0  0  0  0  0  0
    0.4010    0.6360   -0.7070 C   0  0  1  0  0  0  0  0  0  0  0  0
   -0.3040   -0.4290    0.1740 C   0  0  2  0  0  0  0  0  0  0  0  0
    2.5810    1.9490   -0.2780 C   0  0  0  0  0  0  0  0  0  0  0  0
    2.2140    2.9400   -0.5040 H   0  0  0  0  0  0  0  0  0  0  0  0
    8.2050    0.4470    0.5780 N   0  3  0  0  0  0  0  0  0  0  0  0
   -2.3660    0.4660   -1.1340 C   0  0  1  0  0  0  0  0  0  0  0  0
    3.9020    0.2930    0.7300 C   0  0  2  0  0  0  0  0  0  0  0  0
    9.0730    0.2570    1.2910 N   0  5  0  0  0  0  0  0  0  0  0  0
    1.9540   -1.3460    0.9200 C   0  0  0  0  0  0  0  0  0  0  0  0
    2.5280   -2.2690    1.0660 H   0  0  0  0  0  0  0  0  0  0  0  0
    1.8350   -0.8990    1.9160 H   0  0  0  0  0  0  0  0  0  0  0  0
    0.5620   -1.6910    0.3900 C   0  0  0  0  0  0  0  0  0  0  0  0
    0.0710   -2.3570    1.1090 H   0  0  0  0  0  0  0  0  0  0  0  0
    0.6730   -2.2550   -0.5410 H   0  0  0  0  0  0  0  0  0  0  0  0
   -2.6390   -1.0910    0.9050 C   0  0  0  0  0  0  0  0  0  0  0  0
   -2.3160   -2.0440    1.3410 H   0  0  0  0  0  0  0  0  0  0  0  0
   -2.4790   -0.3330    1.6840 H   0  0  0  0  0  0  0  0  0  0  0  0
   -0.3910    1.9640   -0.6550 C   0  0  0  0  0  0  0  0  0  0  0  0
   -0.0620    2.5920    0.1830 H   0  0  0  0  0  0  0  0  0  0  0  0
   -0.1740    2.5340   -1.5690 H   0  0  0  0  0  0  0  0  0  0  0  0
    4.0030    1.6900    0.1050 C   0  0  0  0  0  0  0  0  0  0  0  0
    4.3650    2.4220    0.8330 H   0  0  0  0  0  0  0  0  0  0  0  0
    4.6290    1.7310   -0.7910 H   0  0  0  0  0  0  0  0  0  0  0  0
   -7.0430    0.3280    0.5500 C   0  0  0  0  0  0  0  0  0  0  0  0
    7.1980    0.6740   -0.2320 C   0  0  0  0  0  0  0  0  0  0  0  0
    7.0640    1.5570   -0.8640 H   0  0  0  0  0  0  0  0  0  0  0  0
    5.2080   -0.4900    0.8770 C   0  0  0  0  0  0  0  0  0  0  0  0
    5.0020   -1.5500    1.0710 H   0  0  0  0  0  0  0  0  0  0  0  0
    5.7320   -0.1340    1.7740 H   0  0  0  0  0  0  0  0  0  0  0  0
   -3.8960    0.4210   -1.2870 C   0  0  0  0  0  0  0  0  0  0  0  0
   -4.1690   -0.3480   -2.0220 H   0  0  0  0  0  0  0  0  0  0  0  0
   -4.2640    1.3580   -1.7250 H   0  0  0  0  0  0  0  0  0  0  0  0
   -1.9050    1.7900   -0.5230 C   0  0  0  0  0  0  0  0  0  0  0  0
   -2.4010    2.6400   -1.0070 H   0  0  0  0  0  0  0  0  0  0  0  0
   -2.1840    1.8350    0.5370 H   0  0  0  0  0  0  0  0  0  0  0  0
    6.1870   -0.4110   -0.2690 C   0  0  0  0  0  0  0  0  0  0  0  0
   -6.0380    0.0130   -0.3000 O   0  0  0  0  0  0  0  0  0  0  0  0
   -4.6340    0.1470    0.0200 C   0  0  1  0  0  0  0  0  0  0  0  0
   -8.2140    0.1020    0.2550 O   0  0  0  0  0  0  0  0  0  0  0  0
    6.2260   -1.1640   -1.2300 O   0  0  0  0  0  0  0  0  0  0  0  0
   -4.1360   -1.1560    0.6350 C   0  0  0  0  0  0  0  0  0  0  0  0
   -4.6690   -1.3580    1.5710 H   0  0  0  0  0  0  0  0  0  0  0  0
   -4.3770   -2.0020   -0.0200 H   0  0  0  0  0  0  0  0  0  0  0  0
    3.1250   -1.0970   -1.3180 C   0  0  0  0  0  0  0  0  0  0  0  0
    3.7040   -2.0030   -1.1100 H   0  0  0  0  0  0  0  0  0  0  0  0
    3.7280   -0.4450   -1.9610 H   0  0  0  0  0  0  0  0  0  0  0  0
    2.2570   -1.4010   -1.9130 H   0  0  0  0  0  0  0  0  0  0  0  0
   -1.7880   -1.9690   -1.3030 C   0  0  0  0  0  0  0  0  0  0  0  0
   -2.7750   -2.1340   -1.7450 H   0  0  0  0  0  0  0  0  0  0  0  0
   -1.5220   -2.8980   -0.7870 H   0  0  0  0  0  0  0  0  0  0  0  0
   -1.0850   -1.8260   -2.1310 H   0  0  0  0  0  0  0  0  0  0  0  0
   -6.6770    0.9850    1.8470 C   0  0  0  0  0  0  0  0  0  0  0  0
   -6.2320    1.9650    1.6630 H   0  0  0  0  0  0  0  0  0  0  0  0
   -6.0140    0.3480    2.4360 H   0  0  0  0  0  0  0  0  0  0  0  0
   -7.5880    1.1390    2.4350 H   0  0  0  0  0  0  0  0  0  0  0  0
    0.3860    0.2720   -1.7440 H   0  0  0  0  0  0  0  0  0  0  0  0
   -0.3990    0.0350    1.1690 H   0  0  0  0  0  0  0  0  0  0  0  0
   -1.9670    0.4460   -2.1590 H   0  0  0  0  0  0  0  0  0  0  0  0
    3.5660    0.4590    1.7680 H   0  0  0  0  0  0  0  0  0  0  0  0
   -4.4690    0.9890    0.6990 H   0  0  0  0  0  0  0  0  0  0  0  0
  1  2  1  0  0  0  0
  1  4  1  0  0  0  0
  1  6  2  0  0  0  0
  2 10  1  0  0  0  0
  2 12  1  0  0  0  0
  2 47  1  0  0  0  0
  3  5  1  0  0  0  0
  3  9  1  0  0  0  0
  3 18  1  0  0  0  0
  3 51  1  0  0  0  0
  4  5  1  0  0  0  0
  4 21  1  0  0  0  0
  4 59  1  0  0  0  0
  5 15  1  0  0  0  0
  5 60  1  0  0  0  0
  6  7  1  0  0  0  0
  6 24  1  0  0  0  0
  8 11  2  0  0  0  0
  8 28  2  0  0  0  0
  9 33  1  0  0  0  0
  9 36  1  0  0  0  0
  9 61  1  0  0  0  0
 10 24  1  0  0  0  0
 10 30  1  0  0  0  0
 10 62  1  0  0  0  0
 12 13  1  0  0  0  0
 12 14  1  0  0  0  0
 12 15  1  0  0  0  0
 15 16  1  0  0  0  0
 15 17  1  0  0  0  0
 18 19  1  0  0  0  0
 18 20  1  0  0  0  0
 18 44  1  0  0  0  0
 21 22  1  0  0  0  0
 21 23  1  0  0  0  0
 21 36  1  0  0  0  0
 24 25  1  0  0  0  0
 24 26  1  0  0  0  0
 27 40  1  0  0  0  0
 27 42  2  0  0  0  0
 27 55  1  0  0  0  0
 28 29  1  0  0  0  0
 28 39  1  0  0  0  0
 30 31  1  0  0  0  0
 30 32  1  0  0  0  0
 30 39  1  0  0  0  0
 33 34  1  0  0  0  0
 33 35  1  0  0  0  0
 33 41  1  0  0  0  0
 36 37  1  0  0  0  0
 36 38  1  0  0  0  0
 39 43  2  0  0  0  0
 40 41  1  0  0  0  0
 41 44  1  0  0  0  0
 41 63  1  0  0  0  0
 44 45  1  0  0  0  0
 44 46  1  0  0  0  0
 47 48  1  0  0  0  0
 47 49  1  0  0  0  0
 47 50  1  0  0  0  0
 51 52  1  0  0  0  0
 51 53  1  0  0  0  0
 51 54  1  0  0  0  0
 55 56  1  0  0  0  0
 55 57  1  0  0  0  0
 55 58  1  0  0  0  0
M  CHG  1   8   1
M  CHG  1  11  -1
M  END
>  <IDNUMBER>
AO-774/41465417

>  <NAME>
17-(3-diazo-2-oxopropyl)-10,13-dimethyl-2,3,4,5,6,7,8,9,10,11,12,13,16,17-tetradecahydro-1H-cyclopenta[a]phenanthren-3-yl acetate

>  <ADD_INFO>
http://www.specs.net/enter.php?specsid=AO-774/41465417

>  <H_ACCEPTORS>
4

>  <H_DONORS>
0

>  <ROTATABLE_BONDS>
5

>  <LOGP>
6.48

>  <LOGS>
-7.6399999

>  <TPSA>
43.369999

>  <PRICE>
N06

$$$$
AO-774/41465419
  MOE2011           3D

 58 61  0  0  1  0  0  0  0  0999 V2000
   -2.1910   -0.3640    0.7180 C   0  0  1  0  0  0  0  0  0  0  0  0
    2.4900   -0.4160   -0.7610 C   0  0  1  0  0  0  0  0  0  0  0  0
   -0.2770   -0.8260   -0.9520 C   0  0  3  0  0  0  0  0  0  0  0  0
   -0.7140   -0.8470    0.4960 C   0  0  3  0  0  0  0  0  0  0  0  0
    1.2310   -1.0570   -1.1560 C   0  0  3  0  0  0  0  0  0  0  0  0
   -2.4130    1.0720    0.1500 C   0  0  3  0  0  0  0  0  0  0  0  0
   -1.3510    1.4740   -0.8660 C   0  0  0  0  0  0  0  0  0  0  0  0
   -0.7680    0.3920   -1.7470 C   0  0  0  0  0  0  0  0  0  0  0  0
   -1.5500    0.0920   -2.4540 H   0  0  0  0  0  0  0  0  0  0  0  0
    0.0420    0.8270   -2.3440 H   0  0  0  0  0  0  0  0  0  0  0  0
    3.7280    0.2510   -0.3920 C   0  0  2  0  0  0  0  0  0  0  0  0
    1.5640    0.3610    0.4340 C   0  0  0  0  0  0  0  0  0  0  0  0
    2.1840    0.6890    1.2590 H   0  0  0  0  0  0  0  0  0  0  0  0
    1.2610    1.2990   -0.0560 H   0  0  0  0  0  0  0  0  0  0  0  0
    0.3460   -0.0900    1.2670 C   0  0  0  0  0  0  0  0  0  0  0  0
   -0.0680    0.8200    1.7190 H   0  0  0  0  0  0  0  0  0  0  0  0
    0.6770   -0.6900    2.1250 H   0  0  0  0  0  0  0  0  0  0  0  0
    2.0500   -2.1080    0.0460 C   0  0  0  0  0  0  0  0  0  0  0  0
    1.4790   -2.2960    0.9560 H   0  0  0  0  0  0  0  0  0  0  0  0
    2.3100   -3.0850   -0.3810 H   0  0  0  0  0  0  0  0  0  0  0  0
   -3.1730   -1.3550    0.0310 C   0  0  0  0  0  0  0  0  0  0  0  0
   -2.9540   -1.4120   -1.0420 H   0  0  0  0  0  0  0  0  0  0  0  0
   -3.0270   -2.3720    0.4180 H   0  0  0  0  0  0  0  0  0  0  0  0
    3.6250   -1.2430    0.5280 C   0  0  0  0  0  0  0  0  0  0  0  0
    4.4680   -1.9080    0.3040 H   0  0  0  0  0  0  0  0  0  0  0  0
    3.5700   -1.0650    1.6080 H   0  0  0  0  0  0  0  0  0  0  0  0
   -3.7810    1.2930   -0.5170 C   0  0  0  0  0  0  0  0  0  0  0  0
   -3.7510    1.0110   -1.5800 H   0  0  0  0  0  0  0  0  0  0  0  0
   -4.0170    2.3650   -0.5280 H   0  0  0  0  0  0  0  0  0  0  0  0
   -1.0460    2.6560   -1.0310 O   0  0  0  0  0  0  0  0  0  0  0  0
    4.2410    1.4540    0.4260 C   0  0  3  0  0  0  0  0  0  0  0  0
   -2.4840   -0.3910    2.2450 C   0  0  0  0  0  0  0  0  0  0  0  0
   -2.3020   -1.3910    2.6560 H   0  0  0  0  0  0  0  0  0  0  0  0
   -3.5180   -0.1280    2.4810 H   0  0  0  0  0  0  0  0  0  0  0  0
   -1.8580    0.3130    2.8010 H   0  0  0  0  0  0  0  0  0  0  0  0
    3.2110   -1.3480   -2.0060 C   0  0  0  0  0  0  0  0  0  0  0  0
    2.8670   -2.3790   -2.1840 H   0  0  0  0  0  0  0  0  0  0  0  0
    4.2920   -1.5180   -1.8880 H   0  0  0  0  0  0  0  0  0  0  0  0
    3.0950   -0.7830   -2.9440 H   0  0  0  0  0  0  0  0  0  0  0  0
   -4.6520   -0.9790    0.1680 C   0  0  0  0  0  0  0  0  0  0  0  0
   -5.0540   -1.3990    1.0990 H   0  0  0  0  0  0  0  0  0  0  0  0
   -5.2170   -1.4710   -0.6330 H   0  0  0  0  0  0  0  0  0  0  0  0
   -4.9040    0.5290    0.1650 C   0  0  2  0  0  0  0  0  0  0  0  0
    4.0790    1.3700    1.8340 O   0  0  0  0  0  0  0  0  0  0  0  0
    4.4620    2.1730    2.2270 H   0  0  0  0  0  0  0  0  0  0  0  0
   -6.1260    0.8050   -0.5140 O   0  0  0  0  0  0  0  0  0  0  0  0
   -6.8340    0.3280   -0.0480 H   0  0  0  0  0  0  0  0  0  0  0  0
    3.7190    2.7880   -0.0970 C   0  0  0  0  0  0  0  0  0  0  0  0
    3.8060    2.8530   -1.1860 H   0  0  0  0  0  0  0  0  0  0  0  0
    4.2920    3.6130    0.3420 H   0  0  0  0  0  0  0  0  0  0  0  0
    2.6790    2.9610    0.1910 H   0  0  0  0  0  0  0  0  0  0  0  0
    4.5130    0.1710   -1.1510 H   0  0  0  0  0  0  0  0  0  0  0  0
   -0.7590   -1.6990   -1.4180 H   0  0  0  0  0  0  0  0  0  0  0  0
   -0.6770   -1.8910    0.8390 H   0  0  0  0  0  0  0  0  0  0  0  0
    1.1870   -1.5980   -2.1120 H   0  0  0  0  0  0  0  0  0  0  0  0
   -2.3130    1.7880    0.9780 H   0  0  0  0  0  0  0  0  0  0  0  0
    5.3310    1.4670    0.2870 H   0  0  0  0  0  0  0  0  0  0  0  0
   -5.0200    0.8990    1.1900 H   0  0  0  0  0  0  0  0  0  0  0  0
  1  4  1  0  0  0  0
  1  6  1  0  0  0  0
  1 21  1  0  0  0  0
  1 32  1  0  0  0  0
  2  5  1  0  0  0  0
  2 11  1  0  0  0  0
  2 12  1  0  0  0  0
  2 36  1  0  0  0  0
  3  4  1  0  0  0  0
  3  5  1  0  0  0  0
  3  8  1  0  0  0  0
  3 53  1  0  0  0  0
  4 15  1  0  0  0  0
  4 54  1  0  0  0  0
  5 18  1  0  0  0  0
  5 55  1  0  0  0  0
  6  7  1  0  0  0  0
  6 27  1  0  0  0  0
  6 56  1  0  0  0  0
  7  8  1  0  0  0  0
  7 30  2  0  0  0  0
  8  9  1  0  0  0  0
  8 10  1  0  0  0  0
 11 24  1  0  0  0  0
 11 31  1  0  0  0  0
 11 52  1  0  0  0  0
 12 13  1  0  0  0  0
 12 14  1  0  0  0  0
 12 15  1  0  0  0  0
 15 16  1  0  0  0  0
 15 17  1  0  0  0  0
 18 19  1  0  0  0  0
 18 20  1  0  0  0  0
 18 24  1  0  0  0  0
 21 22  1  0  0  0  0
 21 23  1  0  0  0  0
 21 40  1  0  0  0  0
 24 25  1  0  0  0  0
 24 26  1  0  0  0  0
 27 28  1  0  0  0  0
 27 29  1  0  0  0  0
 27 43  1  0  0  0  0
 31 44  1  0  0  0  0
 31 48  1  0  0  0  0
 31 57  1  0  0  0  0
 32 33  1  0  0  0  0
 32 34  1  0  0  0  0
 32 35  1  0  0  0  0
 36 37  1  0  0  0  0
 36 38  1  0  0  0  0
 36 39  1  0  0  0  0
 40 41  1  0  0  0  0
 40 42  1  0  0  0  0
 40 43  1  0  0  0  0
 43 46  1  0  0  0  0
 43 58  1  0  0  0  0
 44 45  1  0  0  0  0
 46 47  1  0  0  0  0
 48 49  1  0  0  0  0
 48 50  1  0  0  0  0
 48 51  1  0  0  0  0
M  END
>  <IDNUMBER>
AO-774/41465419

>  <NAME>
3,20-dihydroxypregnan-6-one

>  <ADD_INFO>
http://www.specs.net/enter.php?specsid=AO-774/41465419

>  <H_ACCEPTORS>
3

>  <H_DONORS>
2

>  <ROTATABLE_BONDS>
1

>  <LOGP>
3.55

>  <LOGS>
-4.6700001

>  <TPSA>
57.529999

>  <PRICE>
N06

$$$$
AO-774/41465421
  MOE2011           3D

 60 63  0  0  1  0  0  0  0  0999 V2000
    1.4340    0.9030   -0.1890 C   0  0  1  0  0  0  0  0  0  0  0  0
   -2.8360   -0.2980   -0.8880 C   0  0  1  0  0  0  0  0  0  0  0  0
   -3.7970    0.2930    0.1530 C   0  0  0  0  0  0  0  0  0  0  0  0
    0.3090    1.3910    0.7550 C   0  0  2  0  0  0  0  0  0  0  0  0
   -1.3970   -0.1500   -0.2730 C   0  0  3  0  0  0  0  0  0  0  0  0
   -1.0820    1.3390    0.1130 C   0  0  3  0  0  0  0  0  0  0  0  0
    2.6590    1.1480    0.7290 C   0  0  2  0  0  0  0  0  0  0  0  0
   -4.6960   -0.4240    0.8490 C   0  0  0  0  0  0  0  0  0  0  0  0
   -5.3560    0.0160    1.5880 H   0  0  0  0  0  0  0  0  0  0  0  0
    1.1390   -0.5670   -0.5280 C   0  0  0  0  0  0  0  0  0  0  0  0
    1.8800   -0.9620   -1.2310 H   0  0  0  0  0  0  0  0  0  0  0  0
    1.2110   -1.1810    0.3780 H   0  0  0  0  0  0  0  0  0  0  0  0
   -0.2630   -0.7570   -1.1360 C   0  0  0  0  0  0  0  0  0  0  0  0
   -0.4190   -1.8340   -1.2560 H   0  0  0  0  0  0  0  0  0  0  0  0
   -0.2800   -0.3280   -2.1430 H   0  0  0  0  0  0  0  0  0  0  0  0
    0.8260    2.7280    1.2690 C   0  0  0  0  0  0  0  0  0  0  0  0
    0.6260    3.5370    0.5580 H   0  0  0  0  0  0  0  0  0  0  0  0
    0.3710    3.0070    2.2240 H   0  0  0  0  0  0  0  0  0  0  0  0
   -3.2280   -1.7720   -1.2000 C   0  0  0  0  0  0  0  0  0  0  0  0
   -4.1040   -1.7750   -1.8670 H   0  0  0  0  0  0  0  0  0  0  0  0
   -2.4410   -2.2870   -1.7590 H   0  0  0  0  0  0  0  0  0  0  0  0
    2.3390    2.5020    1.4180 C   0  0  0  0  0  0  0  0  0  0  0  0
    2.6170    2.4520    2.4770 H   0  0  0  0  0  0  0  0  0  0  0  0
    2.8800    3.3500    0.9870 H   0  0  0  0  0  0  0  0  0  0  0  0
   -2.1620    1.9230    1.0450 C   0  0  0  0  0  0  0  0  0  0  0  0
   -2.0990    1.4390    2.0290 H   0  0  0  0  0  0  0  0  0  0  0  0
   -1.9780    2.9910    1.2080 H   0  0  0  0  0  0  0  0  0  0  0  0
    4.0330    1.1340    0.0510 C   0  0  0  0  0  0  0  0  0  0  0  0
    4.5710   -2.4820   -0.0680 C   0  0  0  0  0  0  0  0  0  0  0  0
   -3.5760    1.7470    0.4870 C   0  0  0  0  0  0  0  0  0  0  0  0
   -3.7220    2.3730   -0.4000 H   0  0  0  0  0  0  0  0  0  0  0  0
   -4.2970    2.1020    1.2320 H   0  0  0  0  0  0  0  0  0  0  0  0
   -4.7340   -1.9020    0.7530 C   0  0  0  0  0  0  0  0  0  0  0  0
    4.1400   -3.5560    0.8520 C   0  0  0  0  0  0  0  0  0  0  0  0
    4.4650   -4.5530    0.5690 H   0  0  0  0  0  0  0  0  0  0  0  0
    4.1870   -1.2590    0.3730 O   0  0  0  0  0  0  0  0  0  0  0  0
    4.5510   -0.1870   -0.4920 C   0  0  0  0  0  0  0  0  0  0  0  0
    5.6440   -0.1250   -0.5470 H   0  0  0  0  0  0  0  0  0  0  0  0
    4.1340   -0.3350   -1.4930 H   0  0  0  0  0  0  0  0  0  0  0  0
    5.1910   -2.7150   -1.0950 O   0  0  0  0  0  0  0  0  0  0  0  0
    4.7010    2.1610   -0.0940 O   0  0  0  0  0  0  0  0  0  0  0  0
   -5.6190   -2.5290    1.3300 O   0  0  0  0  0  0  0  0  0  0  0  0
    3.4000   -3.3700    1.9510 C   0  0  0  0  0  0  0  0  0  0  0  0
    3.1180   -4.2150    2.5730 H   0  0  0  0  0  0  0  0  0  0  0  0
    3.0510   -2.3910    2.2620 H   0  0  0  0  0  0  0  0  0  0  0  0
   -3.5990   -2.5820    0.0300 C   0  0  0  0  0  0  0  0  0  0  0  0
   -2.7550   -2.6970    0.7160 H   0  0  0  0  0  0  0  0  0  0  0  0
   -3.9310   -3.5790   -0.2790 H   0  0  0  0  0  0  0  0  0  0  0  0
    1.5620    1.7260   -1.4960 C   0  0  0  0  0  0  0  0  0  0  0  0
    0.6440    1.7250   -2.0890 H   0  0  0  0  0  0  0  0  0  0  0  0
    2.3490    1.3150   -2.1380 H   0  0  0  0  0  0  0  0  0  0  0  0
    1.8180    2.7740   -1.3070 H   0  0  0  0  0  0  0  0  0  0  0  0
   -2.9650    0.4560   -2.2360 C   0  0  0  0  0  0  0  0  0  0  0  0
   -2.3790   -0.0340   -3.0220 H   0  0  0  0  0  0  0  0  0  0  0  0
   -2.6320    1.4950   -2.1870 H   0  0  0  0  0  0  0  0  0  0  0  0
   -4.0080    0.4740   -2.5750 H   0  0  0  0  0  0  0  0  0  0  0  0
    0.2770    0.7200    1.6300 H   0  0  0  0  0  0  0  0  0  0  0  0
   -1.3900   -0.7230    0.6670 H   0  0  0  0  0  0  0  0  0  0  0  0
   -1.0740    1.9580   -0.7890 H   0  0  0  0  0  0  0  0  0  0  0  0
    2.6890    0.3900    1.5240 H   0  0  0  0  0  0  0  0  0  0  0  0
  1  4  1  0  0  0  0
  1  7  1  0  0  0  0
  1 10  1  0  0  0  0
  1 49  1  0  0  0  0
  2  3  1  0  0  0  0
  2  5  1  0  0  0  0
  2 19  1  0  0  0  0
  2 53  1  0  0  0  0
  3  8  2  0  0  0  0
  3 30  1  0  0  0  0
  4  6  1  0  0  0  0
  4 16  1  0  0  0  0
  4 57  1  0  0  0  0
  5  6  1  0  0  0  0
  5 13  1  0  0  0  0
  5 58  1  0  0  0  0
  6 25  1  0  0  0  0
  6 59  1  0  0  0  0
  7 22  1  0  0  0  0
  7 28  1  0  0  0  0
  7 60  1  0  0  0  0
  8  9  1  0  0  0  0
  8 33  1  0  0  0  0
 10 11  1  0  0  0  0
 10 12  1  0  0  0  0
 10 13  1  0  0  0  0
 13 14  1  0  0  0  0
 13 15  1  0  0  0  0
 16 17  1  0  0  0  0
 16 18  1  0  0  0  0
 16 22  1  0  0  0  0
 19 20  1  0  0  0  0
 19 21  1  0  0  0  0
 19 46  1  0  0  0  0
 22 23  1  0  0  0  0
 22 24  1  0  0  0  0
 25 26  1  0  0  0  0
 25 27  1  0  0  0  0
 25 30  1  0  0  0  0
 28 37  1  0  0  0  0
 28 41  2  0  0  0  0
 29 34  1  0  0  0  0
 29 36  1  0  0  0  0
 29 40  2  0  0  0  0
 30 31  1  0  0  0  0
 30 32  1  0  0  0  0
 33 42  2  0  0  0  0
 33 46  1  0  0  0  0
 34 35  1  0  0  0  0
 34 43  2  0  0  0  0
 36 37  1  0  0  0  0
 37 38  1  0  0  0  0
 37 39  1  0  0  0  0
 43 44  1  0  0  0  0
 43 45  1  0  0  0  0
 46 47  1  0  0  0  0
 46 48  1  0  0  0  0
 49 50  1  0  0  0  0
 49 51  1  0  0  0  0
 49 52  1  0  0  0  0
 53 54  1  0  0  0  0
 53 55  1  0  0  0  0
 53 56  1  0  0  0  0
M  END
>  <IDNUMBER>
AO-774/41465421

>  <NAME>
3,20-dioxopregn-4-en-21-yl acrylate

>  <ADD_INFO>
http://www.specs.net/enter.php?specsid=AO-774/41465421

>  <H_ACCEPTORS>
4

>  <H_DONORS>
0

>  <ROTATABLE_BONDS>
5

>  <LOGP>
4.0599999

>  <LOGS>
-5.4699998

>  <TPSA>
60.439999

>  <PRICE>
N06

$$$$
AO-774/41465422
  MOE2011           3D

 86 91  0  0  1  0  0  0  0  0999 V2000
    7.0340   -1.1860   -0.5970 S   0  0  0  0  0  0  0  0  0  0  0  0
   -1.9040   -0.2830   -0.6240 C   0  0  2  0  0  0  0  0  0  0  0  0
    2.3180   -1.5910   -0.1780 C   0  0  2  0  0  0  0  0  0  0  0  0
   -0.3890   -0.7030   -0.5320 C   0  0  3  0  0  0  0  0  0  0  0  0
    1.3130   -1.8860    0.9560 C   0  0  2  0  0  0  0  0  0  0  0  0
    0.0040   -1.0860    0.9170 C   0  0  3  0  0  0  0  0  0  0  0  0
   -2.3940    0.2240    0.7690 C   0  0  2  0  0  0  0  0  0  0  0  0
    1.6500   -1.8920   -1.5430 C   0  0  0  0  0  0  0  0  0  0  0  0
    2.0630   -1.2280   -2.3140 H   0  0  0  0  0  0  0  0  0  0  0  0
    1.8930   -2.9080   -1.8780 H   0  0  0  0  0  0  0  0  0  0  0  0
    5.4890   -1.3480   -0.1040 O   0  0  0  0  0  0  0  0  0  0  0  0
    7.4010    0.5230   -0.3110 C   0  0  0  0  0  0  0  0  0  0  0  0
    0.1080   -1.7520   -1.5420 C   0  0  0  0  0  0  0  0  0  0  0  0
   -0.3250   -2.7300   -1.3010 H   0  0  0  0  0  0  0  0  0  0  0  0
   -0.2230   -1.5060   -2.5570 H   0  0  0  0  0  0  0  0  0  0  0  0
   -2.8600   -1.4300   -1.0410 C   0  0  0  0  0  0  0  0  0  0  0  0
   -2.8960   -1.5120   -2.1350 H   0  0  0  0  0  0  0  0  0  0  0  0
   -2.4780   -2.3920   -0.6800 H   0  0  0  0  0  0  0  0  0  0  0  0
   -0.0830    0.1600    1.8170 C   0  0  0  0  0  0  0  0  0  0  0  0
   -0.1310   -0.1650    2.8640 H   0  0  0  0  0  0  0  0  0  0  0  0
    0.8150    0.7810    1.7280 H   0  0  0  0  0  0  0  0  0  0  0  0
    2.1590   -1.9100    2.2240 C   0  0  0  0  0  0  0  0  0  0  0  0
    2.3130   -0.9090    2.6390 H   0  0  0  0  0  0  0  0  0  0  0  0
    1.7030   -2.5270    3.0050 H   0  0  0  0  0  0  0  0  0  0  0  0
    7.0700   -1.3930   -2.0330 O   0  0  0  0  0  0  0  0  0  0  0  0
    7.8800   -1.9480    0.2980 O   0  0  0  0  0  0  0  0  0  0  0  0
    3.4270   -2.6140    0.2200 C   0  0  1  0  0  0  0  0  0  0  0  0
   -3.7560    0.9200    0.6850 C   0  0  0  0  0  0  0  0  0  0  0  0
   -3.6420    1.9370    0.2880 H   0  0  0  0  0  0  0  0  0  0  0  0
   -4.1570    1.0470    1.6980 H   0  0  0  0  0  0  0  0  0  0  0  0
   -1.3190    1.0320    1.5070 C   0  0  0  0  0  0  0  0  0  0  0  0
   -1.0150    1.8960    0.9040 H   0  0  0  0  0  0  0  0  0  0  0  0
   -1.7150    1.4360    2.4460 H   0  0  0  0  0  0  0  0  0  0  0  0
   -7.1480    0.0430   -0.3570 C   0  0  3  0  0  0  0  0  0  0  0  0
   -7.3230    1.2460   -1.1150 O   0  0  0  0  0  0  0  0  0  0  0  0
    4.7810   -2.5170   -0.4850 C   0  0  0  0  0  0  0  0  0  0  0  0
    4.6360   -2.5160   -1.5710 H   0  0  0  0  0  0  0  0  0  0  0  0
    5.3830   -3.3950   -0.2220 H   0  0  0  0  0  0  0  0  0  0  0  0
    3.5080   -2.4910    1.7620 C   0  0  0  0  0  0  0  0  0  0  0  0
    3.6860   -3.4750    2.2120 H   0  0  0  0  0  0  0  0  0  0  0  0
    4.3230   -1.8360    2.0900 H   0  0  0  0  0  0  0  0  0  0  0  0
   -6.0070    0.1210    0.4990 O   0  0  0  0  0  0  0  0  0  0  0  0
   -4.7550    0.1450   -0.2010 C   0  0  3  0  0  0  0  0  0  0  0  0
    6.7550    1.2090    0.7170 C   0  0  0  0  0  0  0  0  0  0  0  0
    6.0490    0.7080    1.3740 H   0  0  0  0  0  0  0  0  0  0  0  0
    8.3070    1.1720   -1.1510 C   0  0  0  0  0  0  0  0  0  0  0  0
    8.8070    0.6390   -1.9560 H   0  0  0  0  0  0  0  0  0  0  0  0
   -4.2960   -1.2920   -0.4960 C   0  0  0  0  0  0  0  0  0  0  0  0
   -4.3810   -1.8790    0.4290 H   0  0  0  0  0  0  0  0  0  0  0  0
   -4.9890   -1.7800   -1.1920 H   0  0  0  0  0  0  0  0  0  0  0  0
   -1.9670    0.8290   -1.7110 C   0  0  0  0  0  0  0  0  0  0  0  0
   -2.9830    1.1380   -1.9580 H   0  0  0  0  0  0  0  0  0  0  0  0
   -1.5160    0.4840   -2.6490 H   0  0  0  0  0  0  0  0  0  0  0  0
   -1.4230    1.7260   -1.3980 H   0  0  0  0  0  0  0  0  0  0  0  0
    2.8620   -0.1420   -0.1650 C   0  0  0  0  0  0  0  0  0  0  0  0
    2.0820    0.6110   -0.2800 H   0  0  0  0  0  0  0  0  0  0  0  0
    3.5600    0.0190   -0.9940 H   0  0  0  0  0  0  0  0  0  0  0  0
    3.3910    0.0980    0.7620 H   0  0  0  0  0  0  0  0  0  0  0  0
    7.0280    2.5650    0.9090 C   0  0  0  0  0  0  0  0  0  0  0  0
    6.5320    3.0980    1.7170 H   0  0  0  0  0  0  0  0  0  0  0  0
    8.5760    2.5270   -0.9510 C   0  0  0  0  0  0  0  0  0  0  0  0
    9.2890    3.0290   -1.6000 H   0  0  0  0  0  0  0  0  0  0  0  0
    7.9300    3.2360    0.0710 C   0  0  0  0  0  0  0  0  0  0  0  0
   -8.0620    2.2370   -0.4110 C   0  0  0  0  0  0  0  0  0  0  0  0
   -7.6010    2.4210    0.5670 H   0  0  0  0  0  0  0  0  0  0  0  0
   -8.0090    3.1740   -0.9750 H   0  0  0  0  0  0  0  0  0  0  0  0
   -8.3670   -0.2870    0.5170 C   0  0  0  0  0  0  0  0  0  0  0  0
   -8.4460   -1.3730    0.6460 H   0  0  0  0  0  0  0  0  0  0  0  0
   -8.2290    0.1190    1.5280 H   0  0  0  0  0  0  0  0  0  0  0  0
    8.2460    4.6840    0.3030 C   0  0  0  0  0  0  0  0  0  0  0  0
    7.3850    5.2100    0.7270 H   0  0  0  0  0  0  0  0  0  0  0  0
    8.5000    5.1840   -0.6380 H   0  0  0  0  0  0  0  0  0  0  0  0
    9.0920    4.7760    0.9910 H   0  0  0  0  0  0  0  0  0  0  0  0
   -9.5150    1.7950   -0.2700 C   0  0  0  0  0  0  0  0  0  0  0  0
   -9.9760    2.3310    0.5680 H   0  0  0  0  0  0  0  0  0  0  0  0
  -10.0790    2.0800   -1.1670 H   0  0  0  0  0  0  0  0  0  0  0  0
   -9.6420    0.2840   -0.0820 C   0  0  0  0  0  0  0  0  0  0  0  0
   -9.8250   -0.1900   -1.0550 H   0  0  0  0  0  0  0  0  0  0  0  0
  -10.5070    0.0530    0.5500 H   0  0  0  0  0  0  0  0  0  0  0  0
    0.9890   -2.9330    0.8140 H   0  0  0  0  0  0  0  0  0  0  0  0
   -2.5740   -0.6550    1.4070 H   0  0  0  0  0  0  0  0  0  0  0  0
    0.1710    0.2080   -0.7730 H   0  0  0  0  0  0  0  0  0  0  0  0
   -0.7520   -1.7910    1.2940 H   0  0  0  0  0  0  0  0  0  0  0  0
    3.0430   -3.6220   -0.0020 H   0  0  0  0  0  0  0  0  0  0  0  0
   -7.0110   -0.7680   -1.0810 H   0  0  0  0  0  0  0  0  0  0  0  0
   -4.8810    0.6890   -1.1430 H   0  0  0  0  0  0  0  0  0  0  0  0
  1 11  1  0  0  0  0
  1 12  1  0  0  0  0
  1 25  2  0  0  0  0
  1 26  2  0  0  0  0
  2  4  1  0  0  0  0
  2  7  1  0  0  0  0
  2 16  1  0  0  0  0
  2 51  1  0  0  0  0
  3  5  1  0  0  0  0
  3  8  1  0  0  0  0
  3 27  1  0  0  0  0
  3 55  1  0  0  0  0
  4  6  1  0  0  0  0
  4 13  1  0  0  0  0
  4 82  1  0  0  0  0
  5  6  1  0  0  0  0
  5 22  1  0  0  0  0
  5 80  1  0  0  0  0
  6 19  1  0  0  0  0
  6 83  1  0  0  0  0
  7 28  1  0  0  0  0
  7 31  1  0  0  0  0
  7 81  1  0  0  0  0
  8  9  1  0  0  0  0
  8 10  1  0  0  0  0
  8 13  1  0  0  0  0
 11 36  1  0  0  0  0
 12 44  2  0  0  0  0
 12 46  1  0  0  0  0
 13 14  1  0  0  0  0
 13 15  1  0  0  0  0
 16 17  1  0  0  0  0
 16 18  1  0  0  0  0
 16 48  1  0  0  0  0
 19 20  1  0  0  0  0
 19 21  1  0  0  0  0
 19 31  1  0  0  0  0
 22 23  1  0  0  0  0
 22 24  1  0  0  0  0
 22 39  1  0  0  0  0
 27 36  1  0  0  0  0
 27 39  1  0  0  0  0
 27 84  1  0  0  0  0
 28 29  1  0  0  0  0
 28 30  1  0  0  0  0
 28 43  1  0  0  0  0
 31 32  1  0  0  0  0
 31 33  1  0  0  0  0
 34 35  1  0  0  0  0
 34 42  1  0  0  0  0
 34 67  1  0  0  0  0
 34 85  1  0  0  0  0
 35 64  1  0  0  0  0
 36 37  1  0  0  0  0
 36 38  1  0  0  0  0
 39 40  1  0  0  0  0
 39 41  1  0  0  0  0
 42 43  1  0  0  0  0
 43 48  1  0  0  0  0
 43 86  1  0  0  0  0
 44 45  1  0  0  0  0
 44 59  1  0  0  0  0
 46 47  1  0  0  0  0
 46 61  2  0  0  0  0
 48 49  1  0  0  0  0
 48 50  1  0  0  0  0
 51 52  1  0  0  0  0
 51 53  1  0  0  0  0
 51 54  1  0  0  0  0
 55 56  1  0  0  0  0
 55 57  1  0  0  0  0
 55 58  1  0  0  0  0
 59 60  1  0  0  0  0
 59 63  2  0  0  0  0
 61 62  1  0  0  0  0
 61 63  1  0  0  0  0
 63 70  1  0  0  0  0
 64 65  1  0  0  0  0
 64 66  1  0  0  0  0
 64 74  1  0  0  0  0
 67 68  1  0  0  0  0
 67 69  1  0  0  0  0
 67 77  1  0  0  0  0
 70 71  1  0  0  0  0
 70 72  1  0  0  0  0
 70 73  1  0  0  0  0
 74 75  1  0  0  0  0
 74 76  1  0  0  0  0
 74 77  1  0  0  0  0
 77 78  1  0  0  0  0
 77 79  1  0  0  0  0
M  END
>  <IDNUMBER>
AO-774/41465422

>  <NAME>
[3-(tetrahydro-2H-pyran-2-yloxy)androstan-17-yl]methyl 4-methylbenzenesulfonate

>  <ADD_INFO>
http://www.specs.net/enter.php?specsid=AO-774/41465422

>  <H_ACCEPTORS>
5

>  <H_DONORS>
0

>  <ROTATABLE_BONDS>
6

>  <LOGP>
7.8899999

>  <LOGS>
-9.9099998

>  <TPSA>
70.209999

>  <PRICE>
N06

$$$$
AO-774/41465427
  MOE2011           3D

 61 66  0  0  1  0  0  0  0  0999 V2000
   -1.1420    0.7220    0.0400 C   0  0  1  0  0  0  0  0  0  0  0  0
   -1.6660    1.8340   -0.8160 C   0  0  2  0  0  0  0  0  0  0  0  0
   -1.9280    1.7860    0.5930 O   0  0  0  0  0  0  0  0  0  0  0  0
   -1.9080   -0.5520   -0.2930 C   0  0  1  0  0  0  0  0  0  0  0  0
    0.2770    0.6150    0.5600 C   0  0  1  0  0  0  0  0  0  0  0  0
   -2.7060    1.2830   -1.7370 C   0  0  1  0  0  0  0  0  0  0  0  0
   -3.1960   -0.0510   -1.0850 C   0  0  2  0  0  0  0  0  0  0  0  0
    2.5950   -0.5500    0.2150 C   0  0  2  0  0  0  0  0  0  0  0  0
    1.1280   -0.3060   -0.3530 C   0  0  1  0  0  0  0  0  0  0  0  0
   -4.4970    0.0080   -0.2880 C   0  0  0  0  0  0  0  0  0  0  0  0
    3.0330    0.6120    1.1700 C   0  0  2  0  0  0  0  0  0  0  0  0
   -1.0190   -1.3820   -1.2540 C   0  0  0  0  0  0  0  0  0  0  0  0
   -1.4970   -2.3470   -1.4630 H   0  0  0  0  0  0  0  0  0  0  0  0
   -0.9180   -0.8720   -2.2200 H   0  0  0  0  0  0  0  0  0  0  0  0
   -4.9600    1.0640    0.3960 C   0  0  0  0  0  0  0  0  0  0  0  0
   -4.4710    2.0240    0.4960 H   0  0  0  0  0  0  0  0  0  0  0  0
   -6.9720   -0.0290    1.1080 C   0  0  0  0  0  0  0  0  0  0  0  0
   -5.3340   -1.1730   -0.3010 C   0  0  0  0  0  0  0  0  0  0  0  0
   -5.0000   -2.0500   -0.8490 H   0  0  0  0  0  0  0  0  0  0  0  0
   -6.1740    1.0810    1.0990 O   0  0  0  0  0  0  0  0  0  0  0  0
    0.3880   -1.6200   -0.7050 C   0  0  0  0  0  0  0  0  0  0  0  0
    0.9640   -2.1730   -1.4560 H   0  0  0  0  0  0  0  0  0  0  0  0
    0.3080   -2.2710    0.1710 H   0  0  0  0  0  0  0  0  0  0  0  0
    0.9620    1.9850    0.7680 C   0  0  0  0  0  0  0  0  0  0  0  0
    0.6210    2.7400    0.0540 H   0  0  0  0  0  0  0  0  0  0  0  0
    0.6650    2.3650    1.7560 H   0  0  0  0  0  0  0  0  0  0  0  0
    3.5480   -0.6580   -1.0140 C   0  0  0  0  0  0  0  0  0  0  0  0
    3.3330   -1.5730   -1.5790 H   0  0  0  0  0  0  0  0  0  0  0  0
    3.3580    0.1750   -1.7040 H   0  0  0  0  0  0  0  0  0  0  0  0
   -6.4990   -1.2030    0.3530 C   0  0  0  0  0  0  0  0  0  0  0  0
   -7.1360   -2.0780    0.3590 H   0  0  0  0  0  0  0  0  0  0  0  0
    2.4870    1.9510    0.6790 C   0  0  0  0  0  0  0  0  0  0  0  0
    2.8910    2.7810    1.2710 H   0  0  0  0  0  0  0  0  0  0  0  0
    2.7960    2.1330   -0.3570 H   0  0  0  0  0  0  0  0  0  0  0  0
    4.5510    0.6800    1.4140 C   0  0  0  0  0  0  0  0  0  0  0  0
    4.8520   -0.1400    2.0800 H   0  0  0  0  0  0  0  0  0  0  0  0
    4.8080    1.5900    1.9710 H   0  0  0  0  0  0  0  0  0  0  0  0
   -8.0420   -0.0690    1.7070 O   0  0  0  0  0  0  0  0  0  0  0  0
   -3.7140    2.2400   -2.0030 O   0  0  0  0  0  0  0  0  0  0  0  0
   -4.4260    1.7900   -2.4900 H   0  0  0  0  0  0  0  0  0  0  0  0
   -2.2340   -1.3560    0.9760 C   0  0  0  0  0  0  0  0  0  0  0  0
   -2.7920   -2.2660    0.7360 H   0  0  0  0  0  0  0  0  0  0  0  0
   -2.8170   -0.7660    1.6910 H   0  0  0  0  0  0  0  0  0  0  0  0
   -1.3310   -1.6610    1.5140 H   0  0  0  0  0  0  0  0  0  0  0  0
    5.0320   -0.6290   -0.6680 C   0  0  0  0  0  0  0  0  0  0  0  0
    5.6260   -0.6480   -1.5900 H   0  0  0  0  0  0  0  0  0  0  0  0
    5.3210   -1.5340   -0.1190 H   0  0  0  0  0  0  0  0  0  0  0  0
    5.3810    0.6130    0.1390 C   0  0  2  0  0  0  0  0  0  0  0  0
    2.6910   -1.8660    1.0290 C   0  0  0  0  0  0  0  0  0  0  0  0
    3.6700   -1.9900    1.5010 H   0  0  0  0  0  0  0  0  0  0  0  0
    2.5410   -2.7490    0.3990 H   0  0  0  0  0  0  0  0  0  0  0  0
    1.9440   -1.8860    1.8310 H   0  0  0  0  0  0  0  0  0  0  0  0
    6.7590    0.5750    0.4980 O   0  0  0  0  0  0  0  0  0  0  0  0
    7.2740    0.5400   -0.3260 H   0  0  0  0  0  0  0  0  0  0  0  0
    0.2170    0.1350    1.5460 H   0  0  0  0  0  0  0  0  0  0  0  0
   -3.3920   -0.7360   -1.9240 H   0  0  0  0  0  0  0  0  0  0  0  0
    1.2220    0.2420   -1.3030 H   0  0  0  0  0  0  0  0  0  0  0  0
    2.5820    0.4380    2.1590 H   0  0  0  0  0  0  0  0  0  0  0  0
   -1.0490    2.6120   -1.2280 H   0  0  0  0  0  0  0  0  0  0  0  0
   -2.2220    1.0550   -2.6940 H   0  0  0  0  0  0  0  0  0  0  0  0
    5.2200    1.5160   -0.4610 H   0  0  0  0  0  0  0  0  0  0  0  0
  1  2  1  0  0  0  0
  1  3  1  0  0  0  0
  1  4  1  0  0  0  0
  1  5  1  0  0  0  0
  2  3  1  0  0  0  0
  2  6  1  0  0  0  0
  2 59  1  0  0  0  0
  4  7  1  0  0  0  0
  4 12  1  0  0  0  0
  4 41  1  0  0  0  0
  5  9  1  0  0  0  0
  5 24  1  0  0  0  0
  5 55  1  0  0  0  0
  6  7  1  0  0  0  0
  6 39  1  0  0  0  0
  6 60  1  0  0  0  0
  7 10  1  0  0  0  0
  7 56  1  0  0  0  0
  8  9  1  0  0  0  0
  8 11  1  0  0  0  0
  8 27  1  0  0  0  0
  8 49  1  0  0  0  0
  9 21  1  0  0  0  0
  9 57  1  0  0  0  0
 10 15  2  0  0  0  0
 10 18  1  0  0  0  0
 11 32  1  0  0  0  0
 11 35  1  0  0  0  0
 11 58  1  0  0  0  0
 12 13  1  0  0  0  0
 12 14  1  0  0  0  0
 12 21  1  0  0  0  0
 15 16  1  0  0  0  0
 15 20  1  0  0  0  0
 17 20  1  0  0  0  0
 17 30  1  0  0  0  0
 17 38  2  0  0  0  0
 18 19  1  0  0  0  0
 18 30  2  0  0  0  0
 21 22  1  0  0  0  0
 21 23  1  0  0  0  0
 24 25  1  0  0  0  0
 24 26  1  0  0  0  0
 24 32  1  0  0  0  0
 27 28  1  0  0  0  0
 27 29  1  0  0  0  0
 27 45  1  0  0  0  0
 30 31  1  0  0  0  0
 32 33  1  0  0  0  0
 32 34  1  0  0  0  0
 35 36  1  0  0  0  0
 35 37  1  0  0  0  0
 35 48  1  0  0  0  0
 39 40  1  0  0  0  0
 41 42  1  0  0  0  0
 41 43  1  0  0  0  0
 41 44  1  0  0  0  0
 45 46  1  0  0  0  0
 45 47  1  0  0  0  0
 45 48  1  0  0  0  0
 48 53  1  0  0  0  0
 48 61  1  0  0  0  0
 49 50  1  0  0  0  0
 49 51  1  0  0  0  0
 49 52  1  0  0  0  0
 53 54  1  0  0  0  0
M  END
>  <IDNUMBER>
AO-774/41465427

>  <NAME>
Cinobufagin, Derivative of

>  <ADD_INFO>
http://www.specs.net/enter.php?specsid=AO-774/41465427

>  <H_ACCEPTORS>
5

>  <H_DONORS>
2

>  <ROTATABLE_BONDS>
1

>  <LOGP>
4

>  <LOGS>
-5.54

>  <TPSA>
79.290001

>  <PRICE>
N06

$$$$
AO-774/41465441
  MOE2011           3D

 61 65  0  0  1  0  0  0  0  0999 V2000
    0.9900    1.5810    0.0250 C   0  0  1  0  0  0  0  0  0  0  0  0
   -2.6310    0.1180   -0.7400 C   0  0  1  0  0  0  0  0  0  0  0  0
    1.8620    0.3030   -0.2750 C   0  0  1  0  0  0  0  0  0  0  0  0
   -3.2340    0.0560    0.7050 C   0  0  1  0  0  0  0  0  0  0  0  0
   -1.0520    0.2310   -0.7530 C   0  0  3  0  0  0  0  0  0  0  0  0
   -0.5420    1.3440    0.2050 C   0  0  3  0  0  0  0  0  0  0  0  0
    4.4120   -0.1510    0.2450 C   0  0  0  0  0  0  0  0  0  0  0  0
    3.1110    0.4620    0.6720 C   0  0  1  0  0  0  0  0  0  0  0  0
    4.7860   -1.4090    0.4730 C   0  0  0  0  0  0  0  0  0  0  0  0
    4.2450   -2.1960    0.9680 H   0  0  0  0  0  0  0  0  0  0  0  0
    6.1210   -1.5710   -0.0960 C   0  0  0  0  0  0  0  0  0  0  0  0
    1.6940    2.2880    1.1960 C   0  0  0  0  0  0  0  0  0  0  0  0
    1.5310    3.3710    1.2040 H   0  0  0  0  0  0  0  0  0  0  0  0
    1.3980    1.8800    2.1670 H   0  0  0  0  0  0  0  0  0  0  0  0
    1.0960   -0.9730    0.1010 C   0  0  0  0  0  0  0  0  0  0  0  0
    1.6860   -1.8660   -0.1440 H   0  0  0  0  0  0  0  0  0  0  0  0
    0.9580   -1.0160    1.1890 H   0  0  0  0  0  0  0  0  0  0  0  0
   -3.1640   -1.0430   -1.6300 C   0  0  0  0  0  0  0  0  0  0  0  0
   -4.1780   -0.7960   -1.9780 H   0  0  0  0  0  0  0  0  0  0  0  0
   -2.5640   -1.1180   -2.5460 H   0  0  0  0  0  0  0  0  0  0  0  0
   -0.2800   -1.0930   -0.5570 C   0  0  0  0  0  0  0  0  0  0  0  0
   -0.8320   -1.8000    0.0540 H   0  0  0  0  0  0  0  0  0  0  0  0
   -0.1660   -1.5750   -1.5360 H   0  0  0  0  0  0  0  0  0  0  0  0
   -3.1780   -1.3590    1.3240 C   0  0  0  0  0  0  0  0  0  0  0  0
   -2.1580   -1.6670    1.5630 H   0  0  0  0  0  0  0  0  0  0  0  0
   -3.7260   -1.3420    2.2770 H   0  0  0  0  0  0  0  0  0  0  0  0
    6.5210   -0.3890   -0.6400 O   0  0  0  0  0  0  0  0  0  0  0  0
    3.1660    1.9610    0.9760 C   0  0  0  0  0  0  0  0  0  0  0  0
    3.7660    2.1830    1.8640 H   0  0  0  0  0  0  0  0  0  0  0  0
    3.5690    2.5370    0.1350 H   0  0  0  0  0  0  0  0  0  0  0  0
   -1.0600    1.0950    1.6290 C   0  0  0  0  0  0  0  0  0  0  0  0
   -0.6720    0.1640    2.0490 H   0  0  0  0  0  0  0  0  0  0  0  0
   -0.7410    1.9040    2.2940 H   0  0  0  0  0  0  0  0  0  0  0  0
   -2.5890    1.0840    1.6490 C   0  0  0  0  0  0  0  0  0  0  0  0
   -2.9530    2.0890    1.3920 H   0  0  0  0  0  0  0  0  0  0  0  0
   -2.9380    0.9200    2.6770 H   0  0  0  0  0  0  0  0  0  0  0  0
    5.4890    0.5840   -0.4610 C   0  0  0  0  0  0  0  0  0  0  0  0
    5.8890    1.4100    0.1350 H   0  0  0  0  0  0  0  0  0  0  0  0
    5.1790    0.9520   -1.4420 H   0  0  0  0  0  0  0  0  0  0  0  0
   -3.2020    1.3840   -1.4310 C   0  0  0  0  0  0  0  0  0  0  0  0
   -4.2950    1.5220   -1.3620 H   0  0  0  0  0  0  0  0  0  0  0  0
    6.7630   -2.6050   -0.0800 O   0  0  0  0  0  0  0  0  0  0  0  0
    1.1350    2.4730   -1.1020 O   0  0  0  0  0  0  0  0  0  0  0  0
    0.6200    3.2790   -0.9300 H   0  0  0  0  0  0  0  0  0  0  0  0
   -4.6370    0.4010    0.6530 O   0  0  0  0  0  0  0  0  0  0  0  0
   -5.1380   -0.4410    0.5010 H   0  0  0  0  0  0  0  0  0  0  0  0
   -2.5450    2.1860   -2.0910 O   0  0  0  0  0  0  0  0  0  0  0  0
   -3.8610   -2.3870    0.4200 C   0  0  2  0  0  0  0  0  0  0  0  0
    2.2800    0.2030   -1.7630 C   0  0  0  0  0  0  0  0  0  0  0  0
    2.8300   -0.7230   -1.9630 H   0  0  0  0  0  0  0  0  0  0  0  0
    2.9210    1.0380   -2.0620 H   0  0  0  0  0  0  0  0  0  0  0  0
    1.4120    0.2040   -2.4310 H   0  0  0  0  0  0  0  0  0  0  0  0
   -3.2520   -2.4260   -0.9760 C   0  0  0  0  0  0  0  0  0  0  0  0
   -2.2690   -2.9020   -0.9430 H   0  0  0  0  0  0  0  0  0  0  0  0
   -3.8670   -3.0640   -1.6230 H   0  0  0  0  0  0  0  0  0  0  0  0
   -5.2390   -2.0010    0.3020 O   0  0  0  0  0  0  0  0  0  0  0  0
   -5.7010   -2.7410   -0.1360 H   0  0  0  0  0  0  0  0  0  0  0  0
   -0.7760    0.5590   -1.7660 H   0  0  0  0  0  0  0  0  0  0  0  0
   -1.0230    2.2830   -0.1040 H   0  0  0  0  0  0  0  0  0  0  0  0
    2.8610   -0.0160    1.6330 H   0  0  0  0  0  0  0  0  0  0  0  0
   -3.8280   -3.3780    0.8860 H   0  0  0  0  0  0  0  0  0  0  0  0
  1  3  1  0  0  0  0
  1  6  1  0  0  0  0
  1 12  1  0  0  0  0
  1 43  1  0  0  0  0
  2  4  1  0  0  0  0
  2  5  1  0  0  0  0
  2 18  1  0  0  0  0
  2 40  1  0  0  0  0
  3  8  1  0  0  0  0
  3 15  1  0  0  0  0
  3 49  1  0  0  0  0
  4 24  1  0  0  0  0
  4 34  1  0  0  0  0
  4 45  1  0  0  0  0
  5  6  1  0  0  0  0
  5 21  1  0  0  0  0
  5 58  1  0  0  0  0
  6 31  1  0  0  0  0
  6 59  1  0  0  0  0
  7  8  1  0  0  0  0
  7  9  2  0  0  0  0
  7 37  1  0  0  0  0
  8 28  1  0  0  0  0
  8 60  1  0  0  0  0
  9 10  1  0  0  0  0
  9 11  1  0  0  0  0
 11 27  1  0  0  0  0
 11 42  2  0  0  0  0
 12 13  1  0  0  0  0
 12 14  1  0  0  0  0
 12 28  1  0  0  0  0
 15 16  1  0  0  0  0
 15 17  1  0  0  0  0
 15 21  1  0  0  0  0
 18 19  1  0  0  0  0
 18 20  1  0  0  0  0
 18 53  1  0  0  0  0
 21 22  1  0  0  0  0
 21 23  1  0  0  0  0
 24 25  1  0  0  0  0
 24 26  1  0  0  0  0
 24 48  1  0  0  0  0
 27 37  1  0  0  0  0
 28 29  1  0  0  0  0
 28 30  1  0  0  0  0
 31 32  1  0  0  0  0
 31 33  1  0  0  0  0
 31 34  1  0  0  0  0
 34 35  1  0  0  0  0
 34 36  1  0  0  0  0
 37 38  1  0  0  0  0
 37 39  1  0  0  0  0
 40 41  1  0  0  0  0
 40 47  2  0  0  0  0
 43 44  1  0  0  0  0
 45 46  1  0  0  0  0
 48 53  1  0  0  0  0
 48 56  1  0  0  0  0
 48 61  1  0  0  0  0
 49 50  1  0  0  0  0
 49 51  1  0  0  0  0
 49 52  1  0  0  0  0
 53 54  1  0  0  0  0
 53 55  1  0  0  0  0
 56 57  1  0  0  0  0
M  END
>  <IDNUMBER>
AO-774/41465441

>  <NAME>
Strophanthidin (Corchorin)

>  <ADD_INFO>
http://www.specs.net/enter.php?specsid=AO-774/41465441

>  <H_ACCEPTORS>
6

>  <H_DONORS>
3

>  <ROTATABLE_BONDS>
2

>  <LOGP>
0.70999998

>  <LOGS>
-2.76

>  <TPSA>
104.06

>  <PRICE>
N06

$$$$
AO-774/41465442
  MOE2011           3D

 60 63  0  0  1  0  0  0  0  0999 V2000
    2.5270   -0.4520    0.0590 C   0  0  1  0  0  0  0  0  0  0  0  0
   -1.5220    0.7530    0.3380 C   0  0  1  0  0  0  0  0  0  0  0  0
   -2.6940    1.5480    0.0010 C   0  0  0  0  0  0  0  0  0  0  0  0
    1.9110    0.9810    0.2220 C   0  0  2  0  0  0  0  0  0  0  0  0
   -0.3630   -0.0730    0.7050 C   0  0  3  0  0  0  0  0  0  0  0  0
    0.4870    1.0120   -0.2940 C   0  0  3  0  0  0  0  0  0  0  0  0
    3.9280   -0.1520    0.6530 C   0  0  2  0  0  0  0  0  0  0  0  0
    7.0790   -0.9900   -0.6040 N   0  3  0  0  0  0  0  0  0  0  0  0
   -2.0050    2.5940   -0.6130 C   0  0  0  0  0  0  0  0  0  0  0  0
   -2.4910    3.4360   -1.0920 H   0  0  0  0  0  0  0  0  0  0  0  0
    1.6770   -1.5080    0.8240 C   0  0  0  0  0  0  0  0  0  0  0  0
    2.0660   -2.5170    0.6410 H   0  0  0  0  0  0  0  0  0  0  0  0
    1.7730   -1.3370    1.9050 H   0  0  0  0  0  0  0  0  0  0  0  0
    7.6680   -1.1530   -1.5670 N   0  5  0  0  0  0  0  0  0  0  0  0
   -0.3040    2.5190   -0.6400 C   0  0  0  0  0  0  0  0  0  0  0  0
    0.0010    2.8010   -1.6560 H   0  0  0  0  0  0  0  0  0  0  0  0
    0.0740    3.2830    0.0490 H   0  0  0  0  0  0  0  0  0  0  0  0
    0.1600   -1.4780    0.4470 C   0  0  0  0  0  0  0  0  0  0  0  0
   -0.3820   -2.1910    1.0790 H   0  0  0  0  0  0  0  0  0  0  0  0
    0.0520   -1.8280   -0.5800 H   0  0  0  0  0  0  0  0  0  0  0  0
    2.9610    1.8990   -0.3710 C   0  0  0  0  0  0  0  0  0  0  0  0
    2.8830    1.9570   -1.4620 H   0  0  0  0  0  0  0  0  0  0  0  0
    2.8830    2.9190    0.0200 H   0  0  0  0  0  0  0  0  0  0  0  0
   -1.9010    0.0660   -1.1370 C   0  0  0  0  0  0  0  0  0  0  0  0
   -1.9630    0.7480   -2.0060 H   0  0  0  0  0  0  0  0  0  0  0  0
   -1.1270   -0.6080   -1.5130 H   0  0  0  0  0  0  0  0  0  0  0  0
    4.2870    1.2330    0.0470 C   0  0  0  0  0  0  0  0  0  0  0  0
    4.8070    1.8460    0.7930 H   0  0  0  0  0  0  0  0  0  0  0  0
    4.9500    1.1520   -0.8220 H   0  0  0  0  0  0  0  0  0  0  0  0
    4.9890   -1.2170    0.4460 C   0  0  0  0  0  0  0  0  0  0  0  0
    6.4060   -0.7820    0.5020 C   0  0  0  0  0  0  0  0  0  0  0  0
    6.7910   -0.3220    1.4180 H   0  0  0  0  0  0  0  0  0  0  0  0
   -4.1220    1.1790    0.1020 C   0  0  0  0  0  0  0  0  0  0  0  0
   -4.7100    1.6860   -0.6710 H   0  0  0  0  0  0  0  0  0  0  0  0
   -4.5400    1.4770    1.0690 H   0  0  0  0  0  0  0  0  0  0  0  0
   -6.1430   -1.8690   -0.2230 C   0  0  0  0  0  0  0  0  0  0  0  0
   -5.5430   -0.6830   -0.4760 O   0  0  0  0  0  0  0  0  0  0  0  0
   -4.2050   -0.3400   -0.0510 C   0  0  1  0  0  0  0  0  0  0  0  0
   -7.2440   -2.1340   -0.6990 O   0  0  0  0  0  0  0  0  0  0  0  0
    4.7870   -2.4190    0.3550 O   0  0  0  0  0  0  0  0  0  0  0  0
   -3.1820   -0.8190   -1.0890 C   0  0  0  0  0  0  0  0  0  0  0  0
   -2.8950   -1.8510   -0.8560 H   0  0  0  0  0  0  0  0  0  0  0  0
   -3.6300   -0.8550   -2.0900 H   0  0  0  0  0  0  0  0  0  0  0  0
    2.6580   -0.9130   -1.4220 C   0  0  0  0  0  0  0  0  0  0  0  0
    1.6920   -0.9960   -1.9270 H   0  0  0  0  0  0  0  0  0  0  0  0
    3.1130   -1.9070   -1.4850 H   0  0  0  0  0  0  0  0  0  0  0  0
    3.2780   -0.2420   -2.0230 H   0  0  0  0  0  0  0  0  0  0  0  0
   -1.4830    1.7270    1.6810 C   0  0  0  0  0  0  0  0  0  0  0  0
   -0.4730    2.0960    1.9170 H   0  0  0  0  0  0  0  0  0  0  0  0
   -1.8000    1.1070    2.5370 H   0  0  0  0  0  0  0  0  0  0  0  0
   -2.1180    2.6270    1.7750 H   0  0  0  0  0  0  0  0  0  0  0  0
   -5.4290   -2.8310    0.6780 C   0  0  0  0  0  0  0  0  0  0  0  0
   -5.3170   -2.4040    1.6770 H   0  0  0  0  0  0  0  0  0  0  0  0
   -4.4660   -3.1210    0.2550 H   0  0  0  0  0  0  0  0  0  0  0  0
   -6.0320   -3.7400    0.7730 H   0  0  0  0  0  0  0  0  0  0  0  0
    1.8650    1.2240    1.2950 H   0  0  0  0  0  0  0  0  0  0  0  0
   -0.0500    0.0990    1.7440 H   0  0  0  0  0  0  0  0  0  0  0  0
    0.5210    0.5850   -1.3040 H   0  0  0  0  0  0  0  0  0  0  0  0
    3.8410   -0.0320    1.7430 H   0  0  0  0  0  0  0  0  0  0  0  0
   -3.9820   -0.7880    0.9240 H   0  0  0  0  0  0  0  0  0  0  0  0
  1  4  1  0  0  0  0
  1  7  1  0  0  0  0
  1 11  1  0  0  0  0
  1 44  1  0  0  0  0
  2  3  1  0  0  0  0
  2  5  1  0  0  0  0
  2 24  1  0  0  0  0
  2 48  1  0  0  0  0
  3  9  2  0  0  0  0
  3 33  1  0  0  0  0
  4  6  1  0  0  0  0
  4 21  1  0  0  0  0
  4 56  1  0  0  0  0
  5  6  1  0  0  0  0
  5 18  1  0  0  0  0
  5 57  1  0  0  0  0
  6 15  1  0  0  0  0
  6 58  1  0  0  0  0
  7 27  1  0  0  0  0
  7 30  1  0  0  0  0
  7 59  1  0  0  0  0
  8 14  2  0  0  0  0
  8 31  2  0  0  0  0
  9 10  1  0  0  0  0
  9 15  1  0  0  0  0
 11 12  1  0  0  0  0
 11 13  1  0  0  0  0
 11 18  1  0  0  0  0
 15 16  1  0  0  0  0
 15 17  1  0  0  0  0
 18 19  1  0  0  0  0
 18 20  1  0  0  0  0
 21 22  1  0  0  0  0
 21 23  1  0  0  0  0
 21 27  1  0  0  0  0
 24 25  1  0  0  0  0
 24 26  1  0  0  0  0
 24 41  1  0  0  0  0
 27 28  1  0  0  0  0
 27 29  1  0  0  0  0
 30 31  1  0  0  0  0
 30 40  2  0  0  0  0
 31 32  1  0  0  0  0
 33 34  1  0  0  0  0
 33 35  1  0  0  0  0
 33 38  1  0  0  0  0
 36 37  1  0  0  0  0
 36 39  2  0  0  0  0
 36 52  1  0  0  0  0
 37 38  1  0  0  0  0
 38 41  1  0  0  0  0
 38 60  1  0  0  0  0
 41 42  1  0  0  0  0
 41 43  1  0  0  0  0
 44 45  1  0  0  0  0
 44 46  1  0  0  0  0
 44 47  1  0  0  0  0
 48 49  1  0  0  0  0
 48 50  1  0  0  0  0
 48 51  1  0  0  0  0
 52 53  1  0  0  0  0
 52 54  1  0  0  0  0
 52 55  1  0  0  0  0
M  CHG  1   8   1
M  CHG  1  14  -1
M  END
>  <IDNUMBER>
AO-774/41465442

>  <NAME>
21-diazo-20-oxopregn-5-en-3-yl acetate

>  <ADD_INFO>
http://www.specs.net/enter.php?specsid=AO-774/41465442

>  <H_ACCEPTORS>
4

>  <H_DONORS>
0

>  <ROTATABLE_BONDS>
4

>  <LOGP>
5.9899998

>  <LOGS>
-7.1199999

>  <TPSA>
43.369999

>  <PRICE>
N06

$$$$
AO-774/41465447
  MOE2011           3D

 22 22  0  0  1  0  0  0  0  0999 V2000
   -1.3440   -0.3100    0.5840 O   0  0  0  0  0  0  0  0  0  0  0  0
   -0.0370    1.6360   -0.1910 C   0  0  0  0  0  0  0  0  0  0  0  0
    0.1040    1.5890   -1.2790 H   0  0  0  0  0  0  0  0  0  0  0  0
    0.0100    2.7060    0.0430 H   0  0  0  0  0  0  0  0  0  0  0  0
    1.0190   -0.6190    0.1250 C   0  0  1  0  0  0  0  0  0  0  0  0
    1.0750    0.8690    0.5060 C   0  0  1  0  0  0  0  0  0  0  0  0
   -0.4150   -1.0650   -0.1980 C   0  0  1  0  0  0  0  0  0  0  0  0
   -1.3990    1.0640    0.2080 C   0  0  1  0  0  0  0  0  0  0  0  0
    1.8560   -0.8350   -1.0190 O   0  0  0  0  0  0  0  0  0  0  0  0
    2.5190   -0.1100   -0.9550 H   0  0  0  0  0  0  0  0  0  0  0  0
    2.3570    1.3710    0.1140 O   0  0  0  0  0  0  0  0  0  0  0  0
    2.3940    2.3080    0.3770 H   0  0  0  0  0  0  0  0  0  0  0  0
   -2.3070    1.2350   -0.8650 O   0  0  0  0  0  0  0  0  0  0  0  0
   -3.1740    0.9850   -0.5040 H   0  0  0  0  0  0  0  0  0  0  0  0
   -0.6170   -2.5420    0.1140 C   0  0  0  0  0  0  0  0  0  0  0  0
    0.0730   -3.1690   -0.4590 H   0  0  0  0  0  0  0  0  0  0  0  0
   -1.6430   -2.8430   -0.1240 H   0  0  0  0  0  0  0  0  0  0  0  0
   -0.4730   -2.7420    1.1810 H   0  0  0  0  0  0  0  0  0  0  0  0
    1.4510   -1.2040    0.9450 H   0  0  0  0  0  0  0  0  0  0  0  0
    0.9760    0.9790    1.5920 H   0  0  0  0  0  0  0  0  0  0  0  0
   -0.6380   -0.9200   -1.2640 H   0  0  0  0  0  0  0  0  0  0  0  0
   -1.7870    1.6180    1.0690 H   0  0  0  0  0  0  0  0  0  0  0  0
  1  7  1  0  0  0  0
  1  8  1  0  0  0  0
  2  3  1  0  0  0  0
  2  4  1  0  0  0  0
  2  6  1  0  0  0  0
  2  8  1  0  0  0  0
  5  6  1  0  0  0  0
  5  7  1  0  0  0  0
  5  9  1  0  0  0  0
  5 19  1  0  0  0  0
  6 11  1  0  0  0  0
  6 20  1  0  0  0  0
  7 15  1  0  0  0  0
  7 21  1  0  0  0  0
  8 13  1  0  0  0  0
  8 22  1  0  0  0  0
  9 10  1  0  0  0  0
 11 12  1  0  0  0  0
 13 14  1  0  0  0  0
 15 16  1  0  0  0  0
 15 17  1  0  0  0  0
 15 18  1  0  0  0  0
M  END
>  <IDNUMBER>
AO-774/41465447

>  <NAME>
6-methyltetrahydro-2H-pyran-2,4,5-triol

>  <ADD_INFO>
http://www.specs.net/enter.php?specsid=AO-774/41465447

>  <H_ACCEPTORS>
4

>  <H_DONORS>
3

>  <ROTATABLE_BONDS>
0

>  <LOGP>
-2.3599999

>  <LOGS>
0.82999998

>  <TPSA>
69.919998

>  <PRICE>
N06

$$$$
AO-774/41465454
  MOE2011           3D

 70 73  0  0  1  0  0  0  0  0999 V2000
    1.0320   -0.3160   -0.1650 C   0  0  2  0  0  0  0  0  0  0  0  0
   -1.9090    0.3350    0.2160 C   0  0  2  0  0  0  0  0  0  0  0  0
   -0.1190   -1.3610   -0.3400 C   0  0  2  0  0  0  0  0  0  0  0  0
   -3.2300    0.6460    0.9970 C   0  0  2  0  0  0  0  0  0  0  0  0
    0.3830    1.0140   -0.5440 C   0  0  0  0  0  0  0  0  0  0  0  0
   -1.3270   -1.0810    0.5910 C   0  0  2  0  0  0  0  0  0  0  0  0
   -4.3210   -0.3400    0.4450 C   0  0  2  0  0  0  0  0  0  0  0  0
   -0.8230    1.4230    0.2890 C   0  0  0  0  0  0  0  0  0  0  0  0
   -0.5070    1.6270    1.3150 H   0  0  0  0  0  0  0  0  0  0  0  0
   -1.1900    2.3650   -0.1330 H   0  0  0  0  0  0  0  0  0  0  0  0
   -2.4480   -2.1530    0.6920 C   0  0  1  0  0  0  0  0  0  0  0  0
    2.0850   -0.8850   -1.1590 C   0  0  2  0  0  0  0  0  0  0  0  0
   -3.7700   -1.7370    0.0570 C   0  0  0  0  0  0  0  0  0  0  0  0
   -3.6380   -1.8140   -1.0310 H   0  0  0  0  0  0  0  0  0  0  0  0
   -4.5360   -2.4920    0.2820 H   0  0  0  0  0  0  0  0  0  0  0  0
    0.6260   -2.6860   -0.2500 C   0  0  0  0  0  0  0  0  0  0  0  0
    0.7730   -2.9930    0.7910 H   0  0  0  0  0  0  0  0  0  0  0  0
    0.1140   -3.5000   -0.7710 H   0  0  0  0  0  0  0  0  0  0  0  0
   -3.7020    2.1270    0.8820 C   0  0  0  0  0  0  0  0  0  0  0  0
   -4.4790    2.3150    1.6380 H   0  0  0  0  0  0  0  0  0  0  0  0
   -2.8930    2.8200    1.1380 H   0  0  0  0  0  0  0  0  0  0  0  0
    1.9720   -2.4180   -0.9310 C   0  0  0  0  0  0  0  0  0  0  0  0
    2.0300   -2.9460   -1.8900 H   0  0  0  0  0  0  0  0  0  0  0  0
    2.7780   -2.8030   -0.2960 H   0  0  0  0  0  0  0  0  0  0  0  0
    5.6080    1.5180    0.3690 C   0  0  0  0  0  0  0  0  0  0  0  0
    0.7760    1.7180   -1.4720 O   0  0  0  0  0  0  0  0  0  0  0  0
   -5.0730    0.1770   -0.8090 C   0  0  0  0  0  0  0  0  0  0  0  0
   -5.9520   -0.4550   -0.9950 H   0  0  0  0  0  0  0  0  0  0  0  0
   -4.4470    0.0580   -1.7040 H   0  0  0  0  0  0  0  0  0  0  0  0
    5.2070    2.1950    1.3070 O   0  0  0  0  0  0  0  0  0  0  0  0
    3.5690   -0.4060   -1.0610 C   0  0  3  0  0  0  0  0  0  0  0  0
    3.7140    1.1240   -1.2340 C   0  0  0  0  0  0  0  0  0  0  0  0
    3.3610    1.4070   -2.2330 H   0  0  0  0  0  0  0  0  0  0  0  0
    3.0750    1.6390   -0.5110 H   0  0  0  0  0  0  0  0  0  0  0  0
   -2.0600   -3.4000    0.1310 O   0  0  0  0  0  0  0  0  0  0  0  0
   -2.7810   -4.0350    0.2820 H   0  0  0  0  0  0  0  0  0  0  0  0
    5.1280    1.6770   -1.0510 C   0  0  0  0  0  0  0  0  0  0  0  0
    5.1350    2.7520   -1.2710 H   0  0  0  0  0  0  0  0  0  0  0  0
    5.8440    1.2330   -1.7490 H   0  0  0  0  0  0  0  0  0  0  0  0
    1.6090   -0.2240    1.2650 C   0  0  0  0  0  0  0  0  0  0  0  0
    2.0900   -1.1550    1.5780 H   0  0  0  0  0  0  0  0  0  0  0  0
    0.8560    0.0150    2.0190 H   0  0  0  0  0  0  0  0  0  0  0  0
    2.3580    0.5720    1.3360 H   0  0  0  0  0  0  0  0  0  0  0  0
   -4.2980    2.5080   -0.4590 C   0  0  0  0  0  0  0  0  0  0  0  0
   -3.5560    2.4190   -1.2620 H   0  0  0  0  0  0  0  0  0  0  0  0
   -4.6010    3.5620   -0.4480 H   0  0  0  0  0  0  0  0  0  0  0  0
   -5.5050    1.6300   -0.7380 C   0  0  1  0  0  0  0  0  0  0  0  0
   -3.0360    0.4390    2.5270 C   0  0  0  0  0  0  0  0  0  0  0  0
   -3.9520    0.6910    3.0750 H   0  0  0  0  0  0  0  0  0  0  0  0
   -2.2380    1.0830    2.9110 H   0  0  0  0  0  0  0  0  0  0  0  0
   -2.7960   -0.5850    2.8130 H   0  0  0  0  0  0  0  0  0  0  0  0
    6.5210    0.5120    0.4540 O   0  0  0  0  0  0  0  0  0  0  0  0
   -6.0850    1.9940   -1.9860 O   0  0  0  0  0  0  0  0  0  0  0  0
   -6.3460    2.9290   -1.9270 H   0  0  0  0  0  0  0  0  0  0  0  0
    4.4300   -1.1390   -2.1060 C   0  0  0  0  0  0  0  0  0  0  0  0
    5.4910   -0.9000   -1.9920 H   0  0  0  0  0  0  0  0  0  0  0  0
    4.1270   -0.8700   -3.1230 H   0  0  0  0  0  0  0  0  0  0  0  0
    4.3540   -2.2260   -2.0080 H   0  0  0  0  0  0  0  0  0  0  0  0
    7.0100    0.2720    1.7740 C   0  0  0  0  0  0  0  0  0  0  0  0
    7.7220   -0.5570    1.7260 H   0  0  0  0  0  0  0  0  0  0  0  0
    6.1900   -0.0130    2.4400 H   0  0  0  0  0  0  0  0  0  0  0  0
    7.5320    1.1550    2.1550 H   0  0  0  0  0  0  0  0  0  0  0  0
   -0.9220   -1.0200    1.6080 H   0  0  0  0  0  0  0  0  0  0  0  0
   -0.5030   -1.2910   -1.3710 H   0  0  0  0  0  0  0  0  0  0  0  0
   -2.1780    0.2870   -0.8510 H   0  0  0  0  0  0  0  0  0  0  0  0
   -5.0740   -0.4770    1.2330 H   0  0  0  0  0  0  0  0  0  0  0  0
   -2.6310   -2.3620    1.7520 H   0  0  0  0  0  0  0  0  0  0  0  0
    1.7400   -0.6730   -2.1830 H   0  0  0  0  0  0  0  0  0  0  0  0
    3.9550   -0.6840   -0.0720 H   0  0  0  0  0  0  0  0  0  0  0  0
   -6.2700    1.7580    0.0370 H   0  0  0  0  0  0  0  0  0  0  0  0
  1  3  1  0  0  0  0
  1  5  1  0  0  0  0
  1 12  1  0  0  0  0
  1 40  1  0  0  0  0
  2  4  1  0  0  0  0
  2  6  1  0  0  0  0
  2  8  1  0  0  0  0
  2 65  1  0  0  0  0
  3  6  1  0  0  0  0
  3 16  1  0  0  0  0
  3 64  1  0  0  0  0
  4  7  1  0  0  0  0
  4 19  1  0  0  0  0
  4 48  1  0  0  0  0
  5  8  1  0  0  0  0
  5 26  2  0  0  0  0
  6 11  1  0  0  0  0
  6 63  1  0  0  0  0
  7 13  1  0  0  0  0
  7 27  1  0  0  0  0
  7 66  1  0  0  0  0
  8  9  1  0  0  0  0
  8 10  1  0  0  0  0
 11 13  1  0  0  0  0
 11 35  1  0  0  0  0
 11 67  1  0  0  0  0
 12 22  1  0  0  0  0
 12 31  1  0  0  0  0
 12 68  1  0  0  0  0
 13 14  1  0  0  0  0
 13 15  1  0  0  0  0
 16 17  1  0  0  0  0
 16 18  1  0  0  0  0
 16 22  1  0  0  0  0
 19 20  1  0  0  0  0
 19 21  1  0  0  0  0
 19 44  1  0  0  0  0
 22 23  1  0  0  0  0
 22 24  1  0  0  0  0
 25 30  2  0  0  0  0
 25 37  1  0  0  0  0
 25 52  1  0  0  0  0
 27 28  1  0  0  0  0
 27 29  1  0  0  0  0
 27 47  1  0  0  0  0
 31 32  1  0  0  0  0
 31 55  1  0  0  0  0
 31 69  1  0  0  0  0
 32 33  1  0  0  0  0
 32 34  1  0  0  0  0
 32 37  1  0  0  0  0
 35 36  1  0  0  0  0
 37 38  1  0  0  0  0
 37 39  1  0  0  0  0
 40 41  1  0  0  0  0
 40 42  1  0  0  0  0
 40 43  1  0  0  0  0
 44 45  1  0  0  0  0
 44 46  1  0  0  0  0
 44 47  1  0  0  0  0
 47 53  1  0  0  0  0
 47 70  1  0  0  0  0
 48 49  1  0  0  0  0
 48 50  1  0  0  0  0
 48 51  1  0  0  0  0
 52 59  1  0  0  0  0
 53 54  1  0  0  0  0
 55 56  1  0  0  0  0
 55 57  1  0  0  0  0
 55 58  1  0  0  0  0
 59 60  1  0  0  0  0
 59 61  1  0  0  0  0
 59 62  1  0  0  0  0
M  END
>  <IDNUMBER>
AO-774/41465454

>  <NAME>
Cholic acid, derivative of

>  <ADD_INFO>
http://www.specs.net/enter.php?specsid=AO-774/41465454

>  <H_ACCEPTORS>
5

>  <H_DONORS>
2

>  <ROTATABLE_BONDS>
5

>  <LOGP>
4

>  <LOGS>
-5.6799998

>  <TPSA>
83.830002

>  <PRICE>
N06

$$$$
AO-774/41465455
  MOE2011           3D

 76 79  0  0  1  0  0  0  0  0999 V2000
   -1.5850    0.7490    0.1260 C   0  0  2  0  0  0  0  0  0  0  0  0
    1.2030   -0.4330    0.0500 C   0  0  2  0  0  0  0  0  0  0  0  0
   -0.3410    1.5260   -0.3870 C   0  0  2  0  0  0  0  0  0  0  0  0
    2.5300   -0.9420    0.7620 C   0  0  2  0  0  0  0  0  0  0  0  0
    0.9870    1.0910    0.2480 C   0  0  2  0  0  0  0  0  0  0  0  0
   -1.3640   -0.7420   -0.2270 C   0  0  2  0  0  0  0  0  0  0  0  0
   -0.0560   -1.2760    0.3900 C   0  0  0  0  0  0  0  0  0  0  0  0
   -0.1980   -1.3320    1.4730 H   0  0  0  0  0  0  0  0  0  0  0  0
    0.1090   -2.3030    0.0410 H   0  0  0  0  0  0  0  0  0  0  0  0
   -2.6870    1.5140   -0.6780 C   0  0  2  0  0  0  0  0  0  0  0  0
    3.5820    0.2150    0.8670 C   0  0  1  0  0  0  0  0  0  0  0  0
   -0.7400    2.9910   -0.2580 C   0  0  0  0  0  0  0  0  0  0  0  0
   -0.5770    3.3620    0.7600 H   0  0  0  0  0  0  0  0  0  0  0  0
   -0.1740    3.6350   -0.9390 H   0  0  0  0  0  0  0  0  0  0  0  0
    3.0840   -2.1280   -0.0790 C   0  0  0  0  0  0  0  0  0  0  0  0
    2.4080   -2.9890   -0.0060 H   0  0  0  0  0  0  0  0  0  0  0  0
    3.1030   -1.8530   -1.1410 H   0  0  0  0  0  0  0  0  0  0  0  0
   -2.2380    3.0010   -0.6000 C   0  0  0  0  0  0  0  0  0  0  0  0
   -2.4110    3.4930   -1.5640 H   0  0  0  0  0  0  0  0  0  0  0  0
   -2.7740    3.5830    0.1530 H   0  0  0  0  0  0  0  0  0  0  0  0
    2.1580    1.8910   -0.3650 C   0  0  0  0  0  0  0  0  0  0  0  0
    1.9460    2.1730   -1.4040 H   0  0  0  0  0  0  0  0  0  0  0  0
    2.2590    2.8330    0.1880 H   0  0  0  0  0  0  0  0  0  0  0  0
    6.7840   -0.3760   -1.4460 C   0  0  0  0  0  0  0  0  0  0  0  0
   -6.4810   -1.7680   -1.1720 C   0  0  0  0  0  0  0  0  0  0  0  0
    5.0240   -0.2660    1.1340 C   0  0  0  0  0  0  0  0  0  0  0  0
    5.0960   -0.5800    2.1830 H   0  0  0  0  0  0  0  0  0  0  0  0
    5.7090    0.5840    1.0290 H   0  0  0  0  0  0  0  0  0  0  0  0
    3.4960    1.1480   -0.3430 C   0  0  0  0  0  0  0  0  0  0  0  0
    4.3080    1.8850   -0.3330 H   0  0  0  0  0  0  0  0  0  0  0  0
    3.6030    0.5800   -1.2740 H   0  0  0  0  0  0  0  0  0  0  0  0
    5.6290   -1.0160   -1.1140 O   0  0  0  0  0  0  0  0  0  0  0  0
    5.4920   -1.4290    0.2600 C   0  0  2  0  0  0  0  0  0  0  0  0
    7.7090   -0.1240   -0.6880 O   0  0  0  0  0  0  0  0  0  0  0  0
   -6.4780   -2.2030   -2.3210 O   0  0  0  0  0  0  0  0  0  0  0  0
   -4.2090    1.3050   -0.4240 C   0  0  3  0  0  0  0  0  0  0  0  0
   -4.6360   -0.1530   -0.6960 C   0  0  0  0  0  0  0  0  0  0  0  0
   -4.1380   -0.5180   -1.6030 H   0  0  0  0  0  0  0  0  0  0  0  0
   -4.2990   -0.7960    0.1240 H   0  0  0  0  0  0  0  0  0  0  0  0
   -1.3230   -0.9250   -1.6410 O   0  0  0  0  0  0  0  0  0  0  0  0
   -1.1050   -1.8560   -1.8160 H   0  0  0  0  0  0  0  0  0  0  0  0
    4.4900   -2.5780    0.3130 C   0  0  0  0  0  0  0  0  0  0  0  0
    4.8030   -3.3690   -0.3800 H   0  0  0  0  0  0  0  0  0  0  0  0
    4.4770   -3.0190    1.3160 H   0  0  0  0  0  0  0  0  0  0  0  0
   -6.1440   -0.3250   -0.8810 C   0  0  0  0  0  0  0  0  0  0  0  0
   -6.4840    0.2660   -1.7410 H   0  0  0  0  0  0  0  0  0  0  0  0
   -6.7240    0.0470   -0.0350 H   0  0  0  0  0  0  0  0  0  0  0  0
   -1.7890    0.8900    1.6520 C   0  0  0  0  0  0  0  0  0  0  0  0
   -2.0710    1.9050    1.9460 H   0  0  0  0  0  0  0  0  0  0  0  0
   -0.8930    0.6410    2.2260 H   0  0  0  0  0  0  0  0  0  0  0  0
   -2.5730    0.2090    1.9990 H   0  0  0  0  0  0  0  0  0  0  0  0
    2.2510   -1.4410    2.2030 C   0  0  0  0  0  0  0  0  0  0  0  0
    3.1730   -1.6760    2.7440 H   0  0  0  0  0  0  0  0  0  0  0  0
    1.6490   -2.3560    2.2070 H   0  0  0  0  0  0  0  0  0  0  0  0
    1.7210   -0.6800    2.7860 H   0  0  0  0  0  0  0  0  0  0  0  0
   -6.7460   -2.5850   -0.1240 O   0  0  0  0  0  0  0  0  0  0  0  0
    6.7590   -0.0090   -2.8980 C   0  0  0  0  0  0  0  0  0  0  0  0
    6.6320   -0.9080   -3.5070 H   0  0  0  0  0  0  0  0  0  0  0  0
    7.7100    0.4600   -3.1690 H   0  0  0  0  0  0  0  0  0  0  0  0
    5.9510    0.7030   -3.0870 H   0  0  0  0  0  0  0  0  0  0  0  0
   -4.7470    1.7800    0.9320 C   0  0  0  0  0  0  0  0  0  0  0  0
   -5.8330    1.9110    0.8840 H   0  0  0  0  0  0  0  0  0  0  0  0
   -4.3380    2.7440    1.2370 H   0  0  0  0  0  0  0  0  0  0  0  0
   -4.5540    1.0560    1.7280 H   0  0  0  0  0  0  0  0  0  0  0  0
   -6.8550   -2.1100    1.2260 C   0  0  0  0  0  0  0  0  0  0  0  0
   -7.0330   -2.9770    1.8690 H   0  0  0  0  0  0  0  0  0  0  0  0
   -7.7100   -1.4340    1.3200 H   0  0  0  0  0  0  0  0  0  0  0  0
   -5.9280   -1.6310    1.5490 H   0  0  0  0  0  0  0  0  0  0  0  0
   -0.2400    1.3380   -1.4690 H   0  0  0  0  0  0  0  0  0  0  0  0
    0.9660    1.3070    1.3220 H   0  0  0  0  0  0  0  0  0  0  0  0
    1.3480   -0.5610   -1.0340 H   0  0  0  0  0  0  0  0  0  0  0  0
    3.3230    0.8350    1.7390 H   0  0  0  0  0  0  0  0  0  0  0  0
   -2.1920   -1.3510    0.1470 H   0  0  0  0  0  0  0  0  0  0  0  0
   -2.5500    1.2380   -1.7360 H   0  0  0  0  0  0  0  0  0  0  0  0
    6.4580   -1.8030    0.6220 H   0  0  0  0  0  0  0  0  0  0  0  0
   -4.7100    1.9310   -1.1780 H   0  0  0  0  0  0  0  0  0  0  0  0
  1  3  1  0  0  0  0
  1  6  1  0  0  0  0
  1 10  1  0  0  0  0
  1 48  1  0  0  0  0
  2  4  1  0  0  0  0
  2  5  1  0  0  0  0
  2  7  1  0  0  0  0
  2 71  1  0  0  0  0
  3  5  1  0  0  0  0
  3 12  1  0  0  0  0
  3 69  1  0  0  0  0
  4 11  1  0  0  0  0
  4 15  1  0  0  0  0
  4 52  1  0  0  0  0
  5 21  1  0  0  0  0
  5 70  1  0  0  0  0
  6  7  1  0  0  0  0
  6 40  1  0  0  0  0
  6 73  1  0  0  0  0
  7  8  1  0  0  0  0
  7  9  1  0  0  0  0
 10 18  1  0  0  0  0
 10 36  1  0  0  0  0
 10 74  1  0  0  0  0
 11 26  1  0  0  0  0
 11 29  1  0  0  0  0
 11 72  1  0  0  0  0
 12 13  1  0  0  0  0
 12 14  1  0  0  0  0
 12 18  1  0  0  0  0
 15 16  1  0  0  0  0
 15 17  1  0  0  0  0
 15 42  1  0  0  0  0
 18 19  1  0  0  0  0
 18 20  1  0  0  0  0
 21 22  1  0  0  0  0
 21 23  1  0  0  0  0
 21 29  1  0  0  0  0
 24 32  1  0  0  0  0
 24 34  2  0  0  0  0
 24 57  1  0  0  0  0
 25 35  2  0  0  0  0
 25 45  1  0  0  0  0
 25 56  1  0  0  0  0
 26 27  1  0  0  0  0
 26 28  1  0  0  0  0
 26 33  1  0  0  0  0
 29 30  1  0  0  0  0
 29 31  1  0  0  0  0
 32 33  1  0  0  0  0
 33 42  1  0  0  0  0
 33 75  1  0  0  0  0
 36 37  1  0  0  0  0
 36 61  1  0  0  0  0
 36 76  1  0  0  0  0
 37 38  1  0  0  0  0
 37 39  1  0  0  0  0
 37 45  1  0  0  0  0
 40 41  1  0  0  0  0
 42 43  1  0  0  0  0
 42 44  1  0  0  0  0
 45 46  1  0  0  0  0
 45 47  1  0  0  0  0
 48 49  1  0  0  0  0
 48 50  1  0  0  0  0
 48 51  1  0  0  0  0
 52 53  1  0  0  0  0
 52 54  1  0  0  0  0
 52 55  1  0  0  0  0
 56 65  1  0  0  0  0
 57 58  1  0  0  0  0
 57 59  1  0  0  0  0
 57 60  1  0  0  0  0
 61 62  1  0  0  0  0
 61 63  1  0  0  0  0
 61 64  1  0  0  0  0
 65 66  1  0  0  0  0
 65 67  1  0  0  0  0
 65 68  1  0  0  0  0
M  END
>  <IDNUMBER>
AO-774/41465455

>  <NAME>
Deoxycholic acid, Derivative of

>  <ADD_INFO>
http://www.specs.net/enter.php?specsid=AO-774/41465455

>  <H_ACCEPTORS>
5

>  <H_DONORS>
1

>  <ROTATABLE_BONDS>
7

>  <LOGP>
5.9400001

>  <LOGS>
-7.0300002

>  <TPSA>
72.830002

>  <PRICE>
N06

$$$$
AO-774/41465458
  MOE2011           3D

 78 82  0  0  1  0  0  0  0  0999 V2000
    2.7930   -0.9440    0.6180 C   0  0  1  0  0  0  0  0  0  0  0  0
   -1.5480   -1.7850    0.0690 C   0  0  2  0  0  0  0  0  0  0  0  0
    2.1500   -0.5950   -0.7360 C   0  0  2  0  0  0  0  0  0  0  0  0
   -0.0140   -1.5100    0.3080 C   0  0  3  0  0  0  0  0  0  0  0  0
    0.7970   -1.2840   -1.0200 C   0  0  3  0  0  0  0  0  0  0  0  0
    4.0970   -0.1070    0.4820 C   0  0  2  0  0  0  0  0  0  0  0  0
   -2.1410   -0.7560   -0.9300 C   0  0  2  0  0  0  0  0  0  0  0  0
    1.8520   -0.4520    1.7370 C   0  0  0  0  0  0  0  0  0  0  0  0
    1.9690   -1.0830    2.6270 H   0  0  0  0  0  0  0  0  0  0  0  0
    2.1280    0.5590    2.0630 H   0  0  0  0  0  0  0  0  0  0  0  0
    0.3550   -0.4210    1.3390 C   0  0  0  0  0  0  0  0  0  0  0  0
    0.1020    0.5680    0.9350 H   0  0  0  0  0  0  0  0  0  0  0  0
   -0.2110   -0.5320    2.2680 H   0  0  0  0  0  0  0  0  0  0  0  0
    3.2800   -0.8050   -1.7410 C   0  0  0  0  0  0  0  0  0  0  0  0
    3.3710   -1.8570   -2.0320 H   0  0  0  0  0  0  0  0  0  0  0  0
    3.1320   -0.2190   -2.6540 H   0  0  0  0  0  0  0  0  0  0  0  0
   -2.3700   -1.7130    1.3860 C   0  0  0  0  0  0  0  0  0  0  0  0
   -2.0140   -2.4670    2.0990 H   0  0  0  0  0  0  0  0  0  0  0  0
   -2.2300   -0.7370    1.8650 H   0  0  0  0  0  0  0  0  0  0  0  0
    4.5380   -0.3510   -0.9790 C   0  0  0  0  0  0  0  0  0  0  0  0
    4.9300    0.5740   -1.4180 H   0  0  0  0  0  0  0  0  0  0  0  0
    5.3270   -1.1060   -1.0550 H   0  0  0  0  0  0  0  0  0  0  0  0
    0.0590   -0.4320   -2.0750 C   0  0  0  0  0  0  0  0  0  0  0  0
    0.1040    0.6280   -1.7930 H   0  0  0  0  0  0  0  0  0  0  0  0
    0.5780   -0.5130   -3.0380 H   0  0  0  0  0  0  0  0  0  0  0  0
    5.2120   -0.3460    1.5020 C   0  0  0  0  0  0  0  0  0  0  0  0
    7.7800    1.9690    0.3180 C   0  0  0  0  0  0  0  0  0  0  0  0
   -3.6580   -0.9290   -1.1450 C   0  0  0  0  0  0  0  0  0  0  0  0
   -3.8680   -1.8740   -1.6580 H   0  0  0  0  0  0  0  0  0  0  0  0
   -4.0050   -0.1330   -1.8150 H   0  0  0  0  0  0  0  0  0  0  0  0
   -1.4050   -0.7850   -2.2700 C   0  0  0  0  0  0  0  0  0  0  0  0
   -1.5010   -1.7580   -2.7620 H   0  0  0  0  0  0  0  0  0  0  0  0
   -1.8520   -0.0530   -2.9550 H   0  0  0  0  0  0  0  0  0  0  0  0
   -5.2600    1.3820    0.2720 C   0  0  3  0  0  0  0  0  0  0  0  0
    8.3090    2.0810   -1.0570 C   0  0  0  0  0  0  0  0  0  0  0  0
    7.9590    1.3710   -1.7970 H   0  0  0  0  0  0  0  0  0  0  0  0
   -4.7070    2.6910    0.4080 O   0  0  0  0  0  0  0  0  0  0  0  0
   -4.3260    0.4230    0.7640 O   0  0  0  0  0  0  0  0  0  0  0  0
    6.8960    0.9400    0.3400 O   0  0  0  0  0  0  0  0  0  0  0  0
    6.2880    0.7250    1.6080 C   0  0  0  0  0  0  0  0  0  0  0  0
    7.0460    0.3840    2.3220 H   0  0  0  0  0  0  0  0  0  0  0  0
    5.8150    1.6410    1.9800 H   0  0  0  0  0  0  0  0  0  0  0  0
   -4.4400   -0.8760    0.1730 C   0  0  3  0  0  0  0  0  0  0  0  0
    8.0870    2.6840    1.2570 O   0  0  0  0  0  0  0  0  0  0  0  0
    5.2280   -1.3120    2.2650 O   0  0  0  0  0  0  0  0  0  0  0  0
    9.1910    3.0370   -1.3710 C   0  0  0  0  0  0  0  0  0  0  0  0
    9.5790    3.1210   -2.3810 H   0  0  0  0  0  0  0  0  0  0  0  0
    9.5460    3.7530   -0.6350 H   0  0  0  0  0  0  0  0  0  0  0  0
   -3.8800   -1.8860    1.1790 C   0  0  0  0  0  0  0  0  0  0  0  0
   -4.3760   -1.7480    2.1480 H   0  0  0  0  0  0  0  0  0  0  0  0
   -4.1050   -2.9060    0.8510 H   0  0  0  0  0  0  0  0  0  0  0  0
    3.0940   -2.4600    0.7550 C   0  0  0  0  0  0  0  0  0  0  0  0
    2.2780   -3.0950    0.4060 H   0  0  0  0  0  0  0  0  0  0  0  0
    3.2820   -2.7380    1.7980 H   0  0  0  0  0  0  0  0  0  0  0  0
    3.9770   -2.7600    0.1800 H   0  0  0  0  0  0  0  0  0  0  0  0
   -1.6610   -3.2410   -0.4780 C   0  0  0  0  0  0  0  0  0  0  0  0
   -2.6800   -3.5090   -0.7700 H   0  0  0  0  0  0  0  0  0  0  0  0
   -1.3470   -3.9640    0.2850 H   0  0  0  0  0  0  0  0  0  0  0  0
   -1.0260   -3.4090   -1.3520 H   0  0  0  0  0  0  0  0  0  0  0  0
   -5.4920    3.6900   -0.2430 C   0  0  0  0  0  0  0  0  0  0  0  0
   -5.2440    4.6450    0.2330 H   0  0  0  0  0  0  0  0  0  0  0  0
   -5.1800    3.7620   -1.2900 H   0  0  0  0  0  0  0  0  0  0  0  0
   -6.5540    1.3000    1.0900 C   0  0  0  0  0  0  0  0  0  0  0  0
   -7.1730    0.4850    0.6980 H   0  0  0  0  0  0  0  0  0  0  0  0
   -6.3350    1.0260    2.1300 H   0  0  0  0  0  0  0  0  0  0  0  0
   -6.9970    3.4390   -0.1510 C   0  0  0  0  0  0  0  0  0  0  0  0
   -7.5400    4.3900   -0.1540 H   0  0  0  0  0  0  0  0  0  0  0  0
   -7.3250    2.8940   -1.0450 H   0  0  0  0  0  0  0  0  0  0  0  0
   -7.3380    2.6120    1.0780 C   0  0  0  0  0  0  0  0  0  0  0  0
   -8.4140    2.4080    1.1220 H   0  0  0  0  0  0  0  0  0  0  0  0
   -7.0900    3.1890    1.9780 H   0  0  0  0  0  0  0  0  0  0  0  0
    1.9600    0.4910   -0.7230 H   0  0  0  0  0  0  0  0  0  0  0  0
   -1.9960    0.2470   -0.5020 H   0  0  0  0  0  0  0  0  0  0  0  0
    0.3570   -2.4370    0.7640 H   0  0  0  0  0  0  0  0  0  0  0  0
    0.9820   -2.2710   -1.4650 H   0  0  0  0  0  0  0  0  0  0  0  0
    3.8320    0.9560    0.5830 H   0  0  0  0  0  0  0  0  0  0  0  0
   -5.4580    1.2050   -0.7930 H   0  0  0  0  0  0  0  0  0  0  0  0
   -5.4960   -1.1110   -0.0050 H   0  0  0  0  0  0  0  0  0  0  0  0
  1  3  1  0  0  0  0
  1  6  1  0  0  0  0
  1  8  1  0  0  0  0
  1 52  1  0  0  0  0
  2  4  1  0  0  0  0
  2  7  1  0  0  0  0
  2 17  1  0  0  0  0
  2 56  1  0  0  0  0
  3  5  1  0  0  0  0
  3 14  1  0  0  0  0
  3 72  1  0  0  0  0
  4  5  1  0  0  0  0
  4 11  1  0  0  0  0
  4 74  1  0  0  0  0
  5 23  1  0  0  0  0
  5 75  1  0  0  0  0
  6 20  1  0  0  0  0
  6 26  1  0  0  0  0
  6 76  1  0  0  0  0
  7 28  1  0  0  0  0
  7 31  1  0  0  0  0
  7 73  1  0  0  0  0
  8  9  1  0  0  0  0
  8 10  1  0  0  0  0
  8 11  1  0  0  0  0
 11 12  1  0  0  0  0
 11 13  1  0  0  0  0
 14 15  1  0  0  0  0
 14 16  1  0  0  0  0
 14 20  1  0  0  0  0
 17 18  1  0  0  0  0
 17 19  1  0  0  0  0
 17 49  1  0  0  0  0
 20 21  1  0  0  0  0
 20 22  1  0  0  0  0
 23 24  1  0  0  0  0
 23 25  1  0  0  0  0
 23 31  1  0  0  0  0
 26 40  1  0  0  0  0
 26 45  2  0  0  0  0
 27 35  1  0  0  0  0
 27 39  1  0  0  0  0
 27 44  2  0  0  0  0
 28 29  1  0  0  0  0
 28 30  1  0  0  0  0
 28 43  1  0  0  0  0
 31 32  1  0  0  0  0
 31 33  1  0  0  0  0
 34 37  1  0  0  0  0
 34 38  1  0  0  0  0
 34 63  1  0  0  0  0
 34 77  1  0  0  0  0
 35 36  1  0  0  0  0
 35 46  2  0  0  0  0
 37 60  1  0  0  0  0
 38 43  1  0  0  0  0
 39 40  1  0  0  0  0
 40 41  1  0  0  0  0
 40 42  1  0  0  0  0
 43 49  1  0  0  0  0
 43 78  1  0  0  0  0
 46 47  1  0  0  0  0
 46 48  1  0  0  0  0
 49 50  1  0  0  0  0
 49 51  1  0  0  0  0
 52 53  1  0  0  0  0
 52 54  1  0  0  0  0
 52 55  1  0  0  0  0
 56 57  1  0  0  0  0
 56 58  1  0  0  0  0
 56 59  1  0  0  0  0
 60 61  1  0  0  0  0
 60 62  1  0  0  0  0
 60 66  1  0  0  0  0
 63 64  1  0  0  0  0
 63 65  1  0  0  0  0
 63 69  1  0  0  0  0
 66 67  1  0  0  0  0
 66 68  1  0  0  0  0
 66 69  1  0  0  0  0
 69 70  1  0  0  0  0
 69 71  1  0  0  0  0
M  END
>  <IDNUMBER>
AO-774/41465458

>  <NAME>
20-oxo-3-(tetrahydro-2H-pyran-2-yloxy)pregnan-21-yl acrylate

>  <ADD_INFO>
http://www.specs.net/enter.php?specsid=AO-774/41465458

>  <H_ACCEPTORS>
5

>  <H_DONORS>
0

>  <ROTATABLE_BONDS>
7

>  <LOGP>
6.0900002

>  <LOGS>
-7.8499999

>  <TPSA>
61.830002

>  <PRICE>
N06

$$$$
AO-774/41465462
  MOE2011           3D

 43 44  0  0  1  0  0  0  0  0999 V2000
   -2.3250   -2.6120   -0.3670 S   0  0  0  0  0  0  0  0  0  0  0  0
    2.4450    1.2370   -0.2290 C   0  0  2  0  0  0  0  0  0  0  0  0
    3.2840    0.0730   -0.7540 C   0  0  2  0  0  0  0  0  0  0  0  0
    0.7060   -0.1170   -1.3570 O   0  0  0  0  0  0  0  0  0  0  0  0
    0.9450    0.9920   -0.4980 C   0  0  1  0  0  0  0  0  0  0  0  0
    1.2900   -1.3810   -0.9710 C   0  0  1  0  0  0  0  0  0  0  0  0
    2.6700   -1.2480   -0.2840 C   0  0  2  0  0  0  0  0  0  0  0  0
   -0.8340   -2.5110   -1.0200 O   0  0  0  0  0  0  0  0  0  0  0  0
   -2.8050   -0.9180   -0.1520 C   0  0  0  0  0  0  0  0  0  0  0  0
    0.2770   -2.2110   -0.1740 C   0  0  0  0  0  0  0  0  0  0  0  0
   -0.0610   -1.6660    0.7120 H   0  0  0  0  0  0  0  0  0  0  0  0
    0.7180   -3.1620    0.1430 H   0  0  0  0  0  0  0  0  0  0  0  0
   -3.2230   -3.1670   -1.3610 O   0  0  0  0  0  0  0  0  0  0  0  0
   -2.2090   -3.2120    0.9490 O   0  0  0  0  0  0  0  0  0  0  0  0
    2.9200    2.4220   -0.8940 O   0  0  0  0  0  0  0  0  0  0  0  0
    2.4370    3.1770   -0.5130 H   0  0  0  0  0  0  0  0  0  0  0  0
   -3.1830   -0.4490    1.1060 C   0  0  0  0  0  0  0  0  0  0  0  0
   -3.2130   -1.1110    1.9690 H   0  0  0  0  0  0  0  0  0  0  0  0
   -2.7730   -0.0660   -1.2580 C   0  0  0  0  0  0  0  0  0  0  0  0
   -2.4790   -0.4340   -2.2380 H   0  0  0  0  0  0  0  0  0  0  0  0
    4.6420    0.2270   -0.3350 O   0  0  0  0  0  0  0  0  0  0  0  0
    4.8690    1.1500   -0.5590 H   0  0  0  0  0  0  0  0  0  0  0  0
    0.2420    0.8460    0.7250 O   0  0  0  0  0  0  0  0  0  0  0  0
   -0.6900    1.0350    0.5210 H   0  0  0  0  0  0  0  0  0  0  0  0
    2.4810   -1.2990    1.1390 O   0  0  0  0  0  0  0  0  0  0  0  0
   -3.5280    0.8950    1.2570 C   0  0  0  0  0  0  0  0  0  0  0  0
   -3.8280    1.2580    2.2380 H   0  0  0  0  0  0  0  0  0  0  0  0
   -3.1220    1.2760   -1.0990 C   0  0  0  0  0  0  0  0  0  0  0  0
   -3.1090    1.9350   -1.9640 H   0  0  0  0  0  0  0  0  0  0  0  0
   -3.4880    1.7690    0.1610 C   0  0  0  0  0  0  0  0  0  0  0  0
    3.6780   -1.4730    1.8850 C   0  0  0  0  0  0  0  0  0  0  0  0
    3.4010   -1.7830    2.8970 H   0  0  0  0  0  0  0  0  0  0  0  0
    4.2210   -0.5290    1.9670 H   0  0  0  0  0  0  0  0  0  0  0  0
    4.3130   -2.2490    1.4480 H   0  0  0  0  0  0  0  0  0  0  0  0
   -3.8970    3.2040    0.3240 C   0  0  0  0  0  0  0  0  0  0  0  0
   -3.6500    3.5690    1.3260 H   0  0  0  0  0  0  0  0  0  0  0  0
   -4.9740    3.3070    0.1640 H   0  0  0  0  0  0  0  0  0  0  0  0
   -3.3690    3.8430   -0.3920 H   0  0  0  0  0  0  0  0  0  0  0  0
    2.6340    1.4050    0.8380 H   0  0  0  0  0  0  0  0  0  0  0  0
    3.3180    0.0940   -1.8510 H   0  0  0  0  0  0  0  0  0  0  0  0
    0.5250    1.8720   -0.9980 H   0  0  0  0  0  0  0  0  0  0  0  0
    1.4510   -1.8850   -1.9330 H   0  0  0  0  0  0  0  0  0  0  0  0
    3.2960   -2.1030   -0.5680 H   0  0  0  0  0  0  0  0  0  0  0  0
  1  8  1  0  0  0  0
  1  9  1  0  0  0  0
  1 13  2  0  0  0  0
  1 14  2  0  0  0  0
  2  3  1  0  0  0  0
  2  5  1  0  0  0  0
  2 15  1  0  0  0  0
  2 39  1  0  0  0  0
  3  7  1  0  0  0  0
  3 21  1  0  0  0  0
  3 40  1  0  0  0  0
  4  5  1  0  0  0  0
  4  6  1  0  0  0  0
  5 23  1  0  0  0  0
  5 41  1  0  0  0  0
  6  7  1  0  0  0  0
  6 10  1  0  0  0  0
  6 42  1  0  0  0  0
  7 25  1  0  0  0  0
  7 43  1  0  0  0  0
  8 10  1  0  0  0  0
  9 17  2  0  0  0  0
  9 19  1  0  0  0  0
 10 11  1  0  0  0  0
 10 12  1  0  0  0  0
 15 16  1  0  0  0  0
 17 18  1  0  0  0  0
 17 26  1  0  0  0  0
 19 20  1  0  0  0  0
 19 28  2  0  0  0  0
 21 22  1  0  0  0  0
 23 24  1  0  0  0  0
 25 31  1  0  0  0  0
 26 27  1  0  0  0  0
 26 30  2  0  0  0  0
 28 29  1  0  0  0  0
 28 30  1  0  0  0  0
 30 35  1  0  0  0  0
 31 32  1  0  0  0  0
 31 33  1  0  0  0  0
 31 34  1  0  0  0  0
 35 36  1  0  0  0  0
 35 37  1  0  0  0  0
 35 38  1  0  0  0  0
M  END
>  <IDNUMBER>
AO-774/41465462

>  <NAME>
4-O-methyl-6-O-[(4-methylphenyl)sulfonyl]hexopyranose

>  <ADD_INFO>
http://www.specs.net/enter.php?specsid=AO-774/41465462

>  <H_ACCEPTORS>
8

>  <H_DONORS>
3

>  <ROTATABLE_BONDS>
5

>  <LOGP>
-0.89999998

>  <LOGS>
-0.97000003

>  <TPSA>
130.89999

>  <PRICE>
N06

$$$$
AO-774/41465468
  MOE2011           3D

 63 67  0  0  1  0  0  0  0  0999 V2000
   -0.8340    1.8380   -0.0940 C   0  0  1  0  0  0  0  0  0  0  0  0
   -1.9580    0.9310    0.5550 C   0  0  1  0  0  0  0  0  0  0  0  0
    0.8300   -0.0800    0.3450 C   0  0  2  0  0  0  0  0  0  0  0  0
    2.3320   -0.4980    0.5670 C   0  0  2  0  0  0  0  0  0  0  0  0
    0.6130    1.4540    0.3570 C   0  0  1  0  0  0  0  0  0  0  0  0
   -2.4800    0.0980   -0.6650 C   0  0  1  0  0  0  0  0  0  0  0  0
   -1.4030    0.0080    1.6700 C   0  0  1  0  0  0  0  0  0  0  0  0
   -3.7920   -0.6190   -0.5260 C   0  0  0  0  0  0  0  0  0  0  0  0
   -0.1720   -0.8120    1.2720 C   0  0  0  0  0  0  0  0  0  0  0  0
    0.3200   -1.1550    2.1880 H   0  0  0  0  0  0  0  0  0  0  0  0
   -0.5020   -1.7240    0.7580 H   0  0  0  0  0  0  0  0  0  0  0  0
   -3.9210   -1.8990   -0.1450 C   0  0  0  0  0  0  0  0  0  0  0  0
   -3.1600   -2.6040    0.1360 H   0  0  0  0  0  0  0  0  0  0  0  0
    3.2520    0.1710   -0.5200 C   0  0  2  0  0  0  0  0  0  0  0  0
   -5.3540   -2.2140   -0.1720 C   0  0  0  0  0  0  0  0  0  0  0  0
   -1.0470    1.7340   -1.6270 C   0  0  0  0  0  0  0  0  0  0  0  0
   -1.0000    2.7030   -2.1360 H   0  0  0  0  0  0  0  0  0  0  0  0
   -0.3050    1.0790   -2.0930 H   0  0  0  0  0  0  0  0  0  0  0  0
   -6.0050   -1.0810   -0.5960 N   0  0  0  0  0  0  0  0  0  0  0  0
   -7.0110   -1.0510   -0.6970 H   0  0  0  0  0  0  0  0  0  0  0  0
   -2.4150    1.0950   -1.8200 C   0  0  0  0  0  0  0  0  0  0  0  0
   -2.4960    0.6060   -2.7970 H   0  0  0  0  0  0  0  0  0  0  0  0
   -3.2010    1.8570   -1.7610 H   0  0  0  0  0  0  0  0  0  0  0  0
    2.4480   -2.0510    0.5020 C   0  0  0  0  0  0  0  0  0  0  0  0
    2.0090   -2.5090    1.3970 H   0  0  0  0  0  0  0  0  0  0  0  0
    1.8650   -2.4310   -0.3480 H   0  0  0  0  0  0  0  0  0  0  0  0
    1.7250    2.2090   -0.4090 C   0  0  0  0  0  0  0  0  0  0  0  0
    1.3210    3.0250   -1.0160 H   0  0  0  0  0  0  0  0  0  0  0  0
    2.3900    2.6900    0.3200 H   0  0  0  0  0  0  0  0  0  0  0  0
   -5.1110    0.0020   -0.8650 C   0  0  0  0  0  0  0  0  0  0  0  0
   -5.1950    0.2740   -1.9200 H   0  0  0  0  0  0  0  0  0  0  0  0
   -5.3780    0.8460   -0.2260 H   0  0  0  0  0  0  0  0  0  0  0  0
    2.5660    1.3060   -1.2990 C   0  0  0  0  0  0  0  0  0  0  0  0
    3.3330    1.9120   -1.7990 H   0  0  0  0  0  0  0  0  0  0  0  0
    1.9420    0.8950   -2.1010 H   0  0  0  0  0  0  0  0  0  0  0  0
    3.8220   -0.8430   -1.5320 C   0  0  0  0  0  0  0  0  0  0  0  0
    4.4820   -0.3180   -2.2340 H   0  0  0  0  0  0  0  0  0  0  0  0
    3.0020   -1.2690   -2.1230 H   0  0  0  0  0  0  0  0  0  0  0  0
   -1.0590    3.2090    0.2650 O   0  0  0  0  0  0  0  0  0  0  0  0
   -0.4360    3.7720   -0.2220 H   0  0  0  0  0  0  0  0  0  0  0  0
   -5.8430   -3.2850    0.1290 O   0  0  0  0  0  0  0  0  0  0  0  0
   -3.0950    1.7910    1.1720 C   0  0  0  0  0  0  0  0  0  0  0  0
   -3.8610    1.1610    1.6370 H   0  0  0  0  0  0  0  0  0  0  0  0
   -3.5860    2.4220    0.4250 H   0  0  0  0  0  0  0  0  0  0  0  0
   -2.7210    2.4560    1.9590 H   0  0  0  0  0  0  0  0  0  0  0  0
   -1.0550    0.7860    2.8210 O   0  0  0  0  0  0  0  0  0  0  0  0
   -0.8830    0.1720    3.5550 H   0  0  0  0  0  0  0  0  0  0  0  0
    3.8840   -2.5500    0.3660 C   0  0  0  0  0  0  0  0  0  0  0  0
    3.8650   -3.6430    0.2780 H   0  0  0  0  0  0  0  0  0  0  0  0
    4.4430   -2.3400    1.2860 H   0  0  0  0  0  0  0  0  0  0  0  0
    4.5970   -1.9700   -0.8540 C   0  0  2  0  0  0  0  0  0  0  0  0
    2.8300   -0.0300    1.9610 C   0  0  0  0  0  0  0  0  0  0  0  0
    3.8830   -0.2900    2.1160 H   0  0  0  0  0  0  0  0  0  0  0  0
    2.2670   -0.4910    2.7780 H   0  0  0  0  0  0  0  0  0  0  0  0
    2.7570    1.0550    2.0810 H   0  0  0  0  0  0  0  0  0  0  0  0
    5.8750   -1.4730   -0.4580 O   0  0  0  0  0  0  0  0  0  0  0  0
    6.3680   -2.2150   -0.0690 H   0  0  0  0  0  0  0  0  0  0  0  0
    0.7060    1.8080    1.3930 H   0  0  0  0  0  0  0  0  0  0  0  0
    0.5820   -0.4280   -0.6680 H   0  0  0  0  0  0  0  0  0  0  0  0
    4.1150    0.6240   -0.0120 H   0  0  0  0  0  0  0  0  0  0  0  0
   -1.7370   -0.6770   -0.9010 H   0  0  0  0  0  0  0  0  0  0  0  0
   -2.1890   -0.6800    2.0040 H   0  0  0  0  0  0  0  0  0  0  0  0
    4.7810   -2.7610   -1.5910 H   0  0  0  0  0  0  0  0  0  0  0  0
  1  2  1  0  0  0  0
  1  5  1  0  0  0  0
  1 16  1  0  0  0  0
  1 39  1  0  0  0  0
  2  6  1  0  0  0  0
  2  7  1  0  0  0  0
  2 42  1  0  0  0  0
  3  4  1  0  0  0  0
  3  5  1  0  0  0  0
  3  9  1  0  0  0  0
  3 59  1  0  0  0  0
  4 14  1  0  0  0  0
  4 24  1  0  0  0  0
  4 52  1  0  0  0  0
  5 27  1  0  0  0  0
  5 58  1  0  0  0  0
  6  8  1  0  0  0  0
  6 21  1  0  0  0  0
  6 61  1  0  0  0  0
  7  9  1  0  0  0  0
  7 46  1  0  0  0  0
  7 62  1  0  0  0  0
  8 12  2  0  0  0  0
  8 30  1  0  0  0  0
  9 10  1  0  0  0  0
  9 11  1  0  0  0  0
 12 13  1  0  0  0  0
 12 15  1  0  0  0  0
 14 33  1  0  0  0  0
 14 36  1  0  0  0  0
 14 60  1  0  0  0  0
 15 19  1  0  0  0  0
 15 41  2  0  0  0  0
 16 17  1  0  0  0  0
 16 18  1  0  0  0  0
 16 21  1  0  0  0  0
 19 20  1  0  0  0  0
 19 30  1  0  0  0  0
 21 22  1  0  0  0  0
 21 23  1  0  0  0  0
 24 25  1  0  0  0  0
 24 26  1  0  0  0  0
 24 48  1  0  0  0  0
 27 28  1  0  0  0  0
 27 29  1  0  0  0  0
 27 33  1  0  0  0  0
 30 31  1  0  0  0  0
 30 32  1  0  0  0  0
 33 34  1  0  0  0  0
 33 35  1  0  0  0  0
 36 37  1  0  0  0  0
 36 38  1  0  0  0  0
 36 51  1  0  0  0  0
 39 40  1  0  0  0  0
 42 43  1  0  0  0  0
 42 44  1  0  0  0  0
 42 45  1  0  0  0  0
 46 47  1  0  0  0  0
 48 49  1  0  0  0  0
 48 50  1  0  0  0  0
 48 51  1  0  0  0  0
 51 56  1  0  0  0  0
 51 63  1  0  0  0  0
 52 53  1  0  0  0  0
 52 54  1  0  0  0  0
 52 55  1  0  0  0  0
 56 57  1  0  0  0  0
M  END
>  <IDNUMBER>
AO-774/41465468

>  <NAME>
Digoxigenin, Derivative of

>  <ADD_INFO>
http://www.specs.net/enter.php?specsid=AO-774/41465468

>  <H_ACCEPTORS>
5

>  <H_DONORS>
4

>  <ROTATABLE_BONDS>
1

>  <LOGP>
2.1600001

>  <LOGS>
-3.8800001

>  <TPSA>
89.790001

>  <PRICE>
N06

$$$$
AO-774/41465469
  MOE2011           3D

 63 65  0  0  0  0  0  0  0  0999 V2000
    1.9570   -0.8650    0.4670 N   0  0  0  0  0  0  0  0  0  0  0  0
    0.9850   -0.4300   -0.4280 C   0  0  0  0  0  0  0  0  0  0  0  0
    0.7960   -2.6930   -1.3910 N   0  0  0  0  0  0  0  0  0  0  0  0
    0.3600   -1.4750   -1.3260 C   0  0  0  0  0  0  0  0  0  0  0  0
    2.4710   -2.1920    0.3590 C   0  0  0  0  0  0  0  0  0  0  0  0
    1.8810   -3.0630   -0.5810 C   0  0  0  0  0  0  0  0  0  0  0  0
   -4.2500   -0.4630    0.4080 C   0  0  0  0  0  0  0  0  0  0  0  0
   -3.6590    0.6480   -0.2160 C   0  0  0  0  0  0  0  0  0  0  0  0
   -3.7480   -1.7620    0.2190 C   0  0  0  0  0  0  0  0  0  0  0  0
    2.4150    0.0810    1.4900 C   0  0  0  0  0  0  0  0  0  0  0  0
    1.5190    0.5210    1.9440 H   0  0  0  0  0  0  0  0  0  0  0  0
    2.9230   -0.4370    2.3060 H   0  0  0  0  0  0  0  0  0  0  0  0
   -2.0570   -0.8470   -1.2720 C   0  0  0  0  0  0  0  0  0  0  0  0
   -0.8400   -1.0560   -2.1410 C   0  0  0  0  0  0  0  0  0  0  0  0
   -0.5890   -0.1460   -2.6990 H   0  0  0  0  0  0  0  0  0  0  0  0
   -1.0620   -1.8260   -2.8900 H   0  0  0  0  0  0  0  0  0  0  0  0
   -2.5650    0.4440   -1.0600 C   0  0  0  0  0  0  0  0  0  0  0  0
   -2.0760    1.2780   -1.5530 H   0  0  0  0  0  0  0  0  0  0  0  0
   -2.6570   -1.9440   -0.6330 C   0  0  0  0  0  0  0  0  0  0  0  0
   -2.2410   -2.9320   -0.8100 H   0  0  0  0  0  0  0  0  0  0  0  0
    0.6530    0.7490   -0.5400 O   0  0  0  0  0  0  0  0  0  0  0  0
    3.3210    1.1940    0.9320 C   0  0  0  0  0  0  0  0  0  0  0  0
    4.0290    0.7760    0.2090 H   0  0  0  0  0  0  0  0  0  0  0  0
    3.8790    1.6880    1.7340 H   0  0  0  0  0  0  0  0  0  0  0  0
    2.5080    2.2830    0.2250 N   0  3  0  0  0  0  0  0  0  0  0  0
    1.6600    1.7940   -0.1600 H   0  0  0  0  0  0  0  0  0  0  0  0
   -5.2970   -0.2660    1.2820 O   0  0  0  0  0  0  0  0  0  0  0  0
   -4.2140    1.8700    0.0670 O   0  0  0  0  0  0  0  0  0  0  0  0
   -4.3800   -2.7650    0.9070 O   0  0  0  0  0  0  0  0  0  0  0  0
    3.5480   -2.6600    1.1260 C   0  0  0  0  0  0  0  0  0  0  0  0
    4.0660   -2.0370    1.8460 H   0  0  0  0  0  0  0  0  0  0  0  0
    2.3600   -4.3710   -0.7180 C   0  0  0  0  0  0  0  0  0  0  0  0
    1.8910   -5.0400   -1.4360 H   0  0  0  0  0  0  0  0  0  0  0  0
    3.2070    2.8310   -1.0000 C   0  0  0  0  0  0  0  0  0  0  0  0
    3.4560    1.9720   -1.6330 H   0  0  0  0  0  0  0  0  0  0  0  0
    2.4850    3.4410   -1.5510 H   0  0  0  0  0  0  0  0  0  0  0  0
    1.9620    3.3180    1.1890 C   0  0  0  0  0  0  0  0  0  0  0  0
    1.5160    2.7730    2.0260 H   0  0  0  0  0  0  0  0  0  0  0  0
    2.7990    3.9120    1.5680 H   0  0  0  0  0  0  0  0  0  0  0  0
   -6.5370   -0.3480    0.5780 C   0  0  0  0  0  0  0  0  0  0  0  0
   -7.3430   -0.2010    1.3030 H   0  0  0  0  0  0  0  0  0  0  0  0
   -6.6720   -1.3320    0.1170 H   0  0  0  0  0  0  0  0  0  0  0  0
   -6.6170    0.4390   -0.1800 H   0  0  0  0  0  0  0  0  0  0  0  0
   -3.6580    3.0080   -0.5770 C   0  0  0  0  0  0  0  0  0  0  0  0
   -4.2290    3.8860   -0.2570 H   0  0  0  0  0  0  0  0  0  0  0  0
   -3.7500    2.9320   -1.6660 H   0  0  0  0  0  0  0  0  0  0  0  0
   -2.6170    3.1620   -0.2760 H   0  0  0  0  0  0  0  0  0  0  0  0
   -3.8870   -4.0880    0.7350 C   0  0  0  0  0  0  0  0  0  0  0  0
   -4.4970   -4.7540    1.3530 H   0  0  0  0  0  0  0  0  0  0  0  0
   -2.8510   -4.1720    1.0790 H   0  0  0  0  0  0  0  0  0  0  0  0
   -3.9880   -4.4140   -0.3050 H   0  0  0  0  0  0  0  0  0  0  0  0
    4.0180   -3.9690    0.9760 C   0  0  0  0  0  0  0  0  0  0  0  0
    4.8530   -4.3180    1.5790 H   0  0  0  0  0  0  0  0  0  0  0  0
    4.4520    3.6250   -0.6530 C   0  0  0  0  0  0  0  0  0  0  0  0
    5.1630    3.0350   -0.0660 H   0  0  0  0  0  0  0  0  0  0  0  0
    4.2110    4.5330   -0.0930 H   0  0  0  0  0  0  0  0  0  0  0  0
    4.9600    3.9360   -1.5720 H   0  0  0  0  0  0  0  0  0  0  0  0
    0.9000    4.1800    0.5330 C   0  0  0  0  0  0  0  0  0  0  0  0
    0.1170    3.5700    0.0730 H   0  0  0  0  0  0  0  0  0  0  0  0
    1.3260    4.8350   -0.2330 H   0  0  0  0  0  0  0  0  0  0  0  0
    0.4290    4.8230    1.2830 H   0  0  0  0  0  0  0  0  0  0  0  0
    3.4230   -4.8260    0.0570 C   0  0  0  0  0  0  0  0  0  0  0  0
    3.7840   -5.8450   -0.0560 H   0  0  0  0  0  0  0  0  0  0  0  0
  1  2  1  0  0  0  0
  1  5  1  0  0  0  0
  1 10  1  0  0  0  0
  2  4  1  0  0  0  0
  2 21  2  0  0  0  0
  3  4  2  0  0  0  0
  3  6  1  0  0  0  0
  4 14  1  0  0  0  0
  5  6  2  0  0  0  0
  5 30  1  0  0  0  0
  6 32  1  0  0  0  0
  7  8  2  0  0  0  0
  7  9  1  0  0  0  0
  7 27  1  0  0  0  0
  8 17  1  0  0  0  0
  8 28  1  0  0  0  0
  9 19  2  0  0  0  0
  9 29  1  0  0  0  0
 10 11  1  0  0  0  0
 10 12  1  0  0  0  0
 10 22  1  0  0  0  0
 13 14  1  0  0  0  0
 13 17  2  0  0  0  0
 13 19  1  0  0  0  0
 14 15  1  0  0  0  0
 14 16  1  0  0  0  0
 17 18  1  0  0  0  0
 19 20  1  0  0  0  0
 22 23  1  0  0  0  0
 22 24  1  0  0  0  0
 22 25  1  0  0  0  0
 25 26  1  0  0  0  0
 25 34  1  0  0  0  0
 25 37  1  0  0  0  0
 27 40  1  0  0  0  0
 28 44  1  0  0  0  0
 29 48  1  0  0  0  0
 30 31  1  0  0  0  0
 30 52  2  0  0  0  0
 32 33  1  0  0  0  0
 32 62  2  0  0  0  0
 34 35  1  0  0  0  0
 34 36  1  0  0  0  0
 34 54  1  0  0  0  0
 37 38  1  0  0  0  0
 37 39  1  0  0  0  0
 37 58  1  0  0  0  0
 40 41  1  0  0  0  0
 40 42  1  0  0  0  0
 40 43  1  0  0  0  0
 44 45  1  0  0  0  0
 44 46  1  0  0  0  0
 44 47  1  0  0  0  0
 48 49  1  0  0  0  0
 48 50  1  0  0  0  0
 48 51  1  0  0  0  0
 52 53  1  0  0  0  0
 52 62  1  0  0  0  0
 54 55  1  0  0  0  0
 54 56  1  0  0  0  0
 54 57  1  0  0  0  0
 58 59  1  0  0  0  0
 58 60  1  0  0  0  0
 58 61  1  0  0  0  0
 62 63  1  0  0  0  0
M  CHG  1  25   1
M  END
>  <IDNUMBER>
AO-774/41465469

>  <NAME>
1-[2-(diethylamino)ethyl]-3-(3,4,5-trimethoxybenzyl)quinoxalin-2(1H)-one

>  <ADD_INFO>
http://www.specs.net/enter.php?specsid=AO-774/41465469

>  <H_ACCEPTORS>
4

>  <H_DONORS>
0

>  <ROTATABLE_BONDS>
10

>  <LOGP>
2.8800001

>  <LOGS>
-4.7600002

>  <TPSA>
63.599998

>  <PRICE>
N06

>  <SALTDATA>
picric acid

$$$$
AO-774/41465493
  MOE2011           3D

 94 99  0  0  1  0  0  0  0  0999 V2000
    0.1510    1.4000    0.3180 C   0  0  2  0  0  0  0  0  0  0  0  0
   -2.6080    0.1920   -0.0070 C   0  0  2  0  0  0  0  0  0  0  0  0
   -0.9230    1.4530    1.4250 C   0  0  2  0  0  0  0  0  0  0  0  0
   -4.0180    0.3010   -0.7310 C   0  0  2  0  0  0  0  0  0  0  0  0
   -2.3530    1.4450    0.8760 C   0  0  2  0  0  0  0  0  0  0  0  0
    0.0170    0.0710   -0.4570 C   0  0  2  0  0  0  0  0  0  0  0  0
    1.4290    1.5660    1.1950 C   0  0  1  0  0  0  0  0  0  0  0  0
   -1.4270   -0.2000   -0.9510 C   0  0  0  0  0  0  0  0  0  0  0  0
   -1.5300    0.3560   -1.8880 H   0  0  0  0  0  0  0  0  0  0  0  0
   -1.5190   -1.2590   -1.2180 H   0  0  0  0  0  0  0  0  0  0  0  0
    4.9190    0.7060   -0.2410 C   0  0  0  0  0  0  0  0  0  0  0  0
    5.1620    1.6210   -0.7800 H   0  0  0  0  0  0  0  0  0  0  0  0
    5.8240   -0.2980   -0.2690 C   0  0  0  0  0  0  0  0  0  0  0  0
   -5.1190    0.8200    0.2750 C   0  0  1  0  0  0  0  0  0  0  0  0
    3.6260    0.7080    0.4220 C   0  0  0  0  0  0  0  0  0  0  0  0
    3.3330   -0.2290    0.8900 H   0  0  0  0  0  0  0  0  0  0  0  0
   -0.5030    2.6450    2.2890 C   0  0  0  0  0  0  0  0  0  0  0  0
   -0.9010    3.5870    1.8960 H   0  0  0  0  0  0  0  0  0  0  0  0
   -0.8590    2.5460    3.3200 H   0  0  0  0  0  0  0  0  0  0  0  0
    2.7670    1.7500    0.4850 C   0  0  0  0  0  0  0  0  0  0  0  0
    0.6900   -1.0580    0.1610 O   0  0  0  0  0  0  0  0  0  0  0  0
   -4.4230   -1.0940   -1.2820 C   0  0  0  0  0  0  0  0  0  0  0  0
   -3.6770   -1.4650   -1.9950 H   0  0  0  0  0  0  0  0  0  0  0  0
   -4.4330   -1.8150   -0.4530 H   0  0  0  0  0  0  0  0  0  0  0  0
    1.0360    2.6490    2.2330 C   0  0  0  0  0  0  0  0  0  0  0  0
    1.4580    2.4010    3.2130 H   0  0  0  0  0  0  0  0  0  0  0  0
    1.3900    3.6520    1.9820 H   0  0  0  0  0  0  0  0  0  0  0  0
   -3.3850    1.5350    2.0140 C   0  0  0  0  0  0  0  0  0  0  0  0
   -2.9650    1.1690    2.9590 H   0  0  0  0  0  0  0  0  0  0  0  0
   -3.6260    2.5930    2.1840 H   0  0  0  0  0  0  0  0  0  0  0  0
    0.1580   -1.8740    1.1000 C   0  0  0  0  0  0  0  0  0  0  0  0
   -8.5420   -1.9370   -0.8390 C   0  0  0  0  0  0  0  0  0  0  0  0
   -6.4740    0.0830    0.1610 C   0  0  0  0  0  0  0  0  0  0  0  0
   -7.2670    0.6930    0.6110 H   0  0  0  0  0  0  0  0  0  0  0  0
   -6.4460   -0.8360    0.7580 H   0  0  0  0  0  0  0  0  0  0  0  0
   -4.6720    0.7630    1.7440 C   0  0  0  0  0  0  0  0  0  0  0  0
   -5.4620    1.1560    2.3970 H   0  0  0  0  0  0  0  0  0  0  0  0
   -4.5290   -0.2840    2.0440 H   0  0  0  0  0  0  0  0  0  0  0  0
   -8.1840   -0.7630   -1.4250 O   0  0  0  0  0  0  0  0  0  0  0  0
    5.5850   -1.5860    0.4210 C   0  0  0  0  0  0  0  0  0  0  0  0
    7.0740   -0.0410   -1.0270 C   0  0  0  0  0  0  0  0  0  0  0  0
   -6.8390   -0.2500   -1.2820 C   0  0  2  0  0  0  0  0  0  0  0  0
   -0.9620   -1.8190    1.5790 O   0  0  0  0  0  0  0  0  0  0  0  0
   -7.8220   -2.6640   -0.1710 O   0  0  0  0  0  0  0  0  0  0  0  0
   -5.7940   -1.1340   -1.9690 C   0  0  0  0  0  0  0  0  0  0  0  0
   -6.1240   -2.1760   -2.0450 H   0  0  0  0  0  0  0  0  0  0  0  0
   -5.6910   -0.8000   -3.0100 H   0  0  0  0  0  0  0  0  0  0  0  0
   -0.0050    2.5650   -0.7000 C   0  0  0  0  0  0  0  0  0  0  0  0
    0.0450    3.5500   -0.2270 H   0  0  0  0  0  0  0  0  0  0  0  0
   -0.9530    2.5240   -1.2440 H   0  0  0  0  0  0  0  0  0  0  0  0
    0.7790    2.5250   -1.4640 H   0  0  0  0  0  0  0  0  0  0  0  0
   -3.9440    1.2940   -1.9250 C   0  0  0  0  0  0  0  0  0  0  0  0
   -4.9330    1.5430   -2.3190 H   0  0  0  0  0  0  0  0  0  0  0  0
   -3.3750    0.8810   -2.7640 H   0  0  0  0  0  0  0  0  0  0  0  0
   -3.4800    2.2420   -1.6400 H   0  0  0  0  0  0  0  0  0  0  0  0
    3.1050    3.0940   -0.1100 C   0  0  0  0  0  0  0  0  0  0  0  0
    2.3490    3.8540    0.0930 H   0  0  0  0  0  0  0  0  0  0  0  0
    3.1970    3.0200   -1.1990 H   0  0  0  0  0  0  0  0  0  0  0  0
    4.0460    3.4740    0.3030 H   0  0  0  0  0  0  0  0  0  0  0  0
    1.1720   -2.9020    1.4970 C   0  0  0  0  0  0  0  0  0  0  0  0
    1.4470   -3.5060    0.6290 H   0  0  0  0  0  0  0  0  0  0  0  0
    0.7430   -3.5630    2.2560 H   0  0  0  0  0  0  0  0  0  0  0  0
    2.0500   -2.4100    1.9230 H   0  0  0  0  0  0  0  0  0  0  0  0
   -9.9830   -2.2240   -1.1310 C   0  0  0  0  0  0  0  0  0  0  0  0
  -10.1460   -2.2490   -2.2110 H   0  0  0  0  0  0  0  0  0  0  0  0
  -10.6140   -1.4630   -0.6640 H   0  0  0  0  0  0  0  0  0  0  0  0
  -10.2490   -3.2020   -0.7200 H   0  0  0  0  0  0  0  0  0  0  0  0
    4.8060   -2.5870   -0.1730 C   0  0  0  0  0  0  0  0  0  0  0  0
    4.3460   -2.4220   -1.1450 H   0  0  0  0  0  0  0  0  0  0  0  0
    6.1670   -1.8210    1.6730 C   0  0  0  0  0  0  0  0  0  0  0  0
    6.7790   -1.0570    2.1470 H   0  0  0  0  0  0  0  0  0  0  0  0
    7.3810   -0.8150   -2.1540 C   0  0  0  0  0  0  0  0  0  0  0  0
    6.7060   -1.6010   -2.4840 H   0  0  0  0  0  0  0  0  0  0  0  0
    7.9680    0.9640   -0.6260 C   0  0  0  0  0  0  0  0  0  0  0  0
    7.7580    1.5690    0.2520 H   0  0  0  0  0  0  0  0  0  0  0  0
    9.1410    1.1960   -1.3480 C   0  0  0  0  0  0  0  0  0  0  0  0
    9.8270    1.9770   -1.0320 H   0  0  0  0  0  0  0  0  0  0  0  0
    4.6180   -3.8090    0.4750 C   0  0  0  0  0  0  0  0  0  0  0  0
    4.0180   -4.5860    0.0080 H   0  0  0  0  0  0  0  0  0  0  0  0
    5.9720   -3.0410    2.3220 C   0  0  0  0  0  0  0  0  0  0  0  0
    6.4270   -3.2180    3.2930 H   0  0  0  0  0  0  0  0  0  0  0  0
    8.5540   -0.5810   -2.8740 C   0  0  0  0  0  0  0  0  0  0  0  0
    8.7820   -1.1840   -3.7490 H   0  0  0  0  0  0  0  0  0  0  0  0
    5.1990   -4.0350    1.7230 C   0  0  0  0  0  0  0  0  0  0  0  0
    5.0520   -4.9860    2.2270 H   0  0  0  0  0  0  0  0  0  0  0  0
    9.4320    0.4240   -2.4720 C   0  0  0  0  0  0  0  0  0  0  0  0
   10.3440    0.6060   -3.0340 H   0  0  0  0  0  0  0  0  0  0  0  0
   -0.8170    0.5710    2.0700 H   0  0  0  0  0  0  0  0  0  0  0  0
   -2.4930    2.3450    0.2690 H   0  0  0  0  0  0  0  0  0  0  0  0
   -2.7050   -0.6510    0.6860 H   0  0  0  0  0  0  0  0  0  0  0  0
   -5.3120    1.8790    0.0510 H   0  0  0  0  0  0  0  0  0  0  0  0
    0.6110    0.1810   -1.3750 H   0  0  0  0  0  0  0  0  0  0  0  0
    1.5220    0.6490    1.7980 H   0  0  0  0  0  0  0  0  0  0  0  0
   -6.8770    0.7010   -1.8250 H   0  0  0  0  0  0  0  0  0  0  0  0
  1  3  1  0  0  0  0
  1  6  1  0  0  0  0
  1  7  1  0  0  0  0
  1 48  1  0  0  0  0
  2  4  1  0  0  0  0
  2  5  1  0  0  0  0
  2  8  1  0  0  0  0
  2 90  1  0  0  0  0
  3  5  1  0  0  0  0
  3 17  1  0  0  0  0
  3 88  1  0  0  0  0
  4 14  1  0  0  0  0
  4 22  1  0  0  0  0
  4 52  1  0  0  0  0
  5 28  1  0  0  0  0
  5 89  1  0  0  0  0
  6  8  1  0  0  0  0
  6 21  1  0  0  0  0
  6 92  1  0  0  0  0
  7 20  1  0  0  0  0
  7 25  1  0  0  0  0
  7 93  1  0  0  0  0
  8  9  1  0  0  0  0
  8 10  1  0  0  0  0
 11 12  1  0  0  0  0
 11 13  2  0  0  0  0
 11 15  1  0  0  0  0
 13 40  1  0  0  0  0
 13 41  1  0  0  0  0
 14 33  1  0  0  0  0
 14 36  1  0  0  0  0
 14 91  1  0  0  0  0
 15 16  1  0  0  0  0
 15 20  2  0  0  0  0
 17 18  1  0  0  0  0
 17 19  1  0  0  0  0
 17 25  1  0  0  0  0
 20 56  1  0  0  0  0
 21 31  1  0  0  0  0
 22 23  1  0  0  0  0
 22 24  1  0  0  0  0
 22 45  1  0  0  0  0
 25 26  1  0  0  0  0
 25 27  1  0  0  0  0
 28 29  1  0  0  0  0
 28 30  1  0  0  0  0
 28 36  1  0  0  0  0
 31 43  2  0  0  0  0
 31 60  1  0  0  0  0
 32 39  1  0  0  0  0
 32 44  2  0  0  0  0
 32 64  1  0  0  0  0
 33 34  1  0  0  0  0
 33 35  1  0  0  0  0
 33 42  1  0  0  0  0
 36 37  1  0  0  0  0
 36 38  1  0  0  0  0
 39 42  1  0  0  0  0
 40 68  2  0  0  0  0
 40 70  1  0  0  0  0
 41 72  2  0  0  0  0
 41 74  1  0  0  0  0
 42 45  1  0  0  0  0
 42 94  1  0  0  0  0
 45 46  1  0  0  0  0
 45 47  1  0  0  0  0
 48 49  1  0  0  0  0
 48 50  1  0  0  0  0
 48 51  1  0  0  0  0
 52 53  1  0  0  0  0
 52 54  1  0  0  0  0
 52 55  1  0  0  0  0
 56 57  1  0  0  0  0
 56 58  1  0  0  0  0
 56 59  1  0  0  0  0
 60 61  1  0  0  0  0
 60 62  1  0  0  0  0
 60 63  1  0  0  0  0
 64 65  1  0  0  0  0
 64 66  1  0  0  0  0
 64 67  1  0  0  0  0
 68 69  1  0  0  0  0
 68 78  1  0  0  0  0
 70 71  1  0  0  0  0
 70 80  2  0  0  0  0
 72 73  1  0  0  0  0
 72 82  1  0  0  0  0
 74 75  1  0  0  0  0
 74 76  2  0  0  0  0
 76 77  1  0  0  0  0
 76 86  1  0  0  0  0
 78 79  1  0  0  0  0
 78 84  2  0  0  0  0
 80 81  1  0  0  0  0
 80 84  1  0  0  0  0
 82 83  1  0  0  0  0
 82 86  2  0  0  0  0
 84 85  1  0  0  0  0
 86 87  1  0  0  0  0
M  END
>  <IDNUMBER>
AO-774/41465493

>  <NAME>
D20,23-3a,12a-diacetoxy-24,24-diphenylcholadiene

>  <ADD_INFO>
http://www.specs.net/enter.php?specsid=AO-774/41465493

>  <H_ACCEPTORS>
4

>  <H_DONORS>
0

>  <ROTATABLE_BONDS>
8

>  <LOGP>
10.27

>  <LOGS>
-12.3

>  <TPSA>
52.599998

>  <PRICE>
N06

$$$$
AO-774/41465498
  MOE2011           3D

 61 64  0  0  1  0  0  0  0  0999 V2000
    1.3280   -0.4330    0.1150 C   0  0  1  0  0  0  0  0  0  0  0  0
    0.4840    0.7940    0.5320 C   0  0  2  0  0  0  0  0  0  0  0  0
   -1.6750   -0.4610    0.2650 C   0  0  1  0  0  0  0  0  0  0  0  0
   -0.8970    0.8320   -0.1330 C   0  0  1  0  0  0  0  0  0  0  0  0
   -3.1250   -0.4870   -0.3400 C   0  0  2  0  0  0  0  0  0  0  0  0
    2.6260   -0.1180    0.9140 C   0  0  2  0  0  0  0  0  0  0  0  0
    0.5750   -1.6910    0.5780 C   0  0  0  0  0  0  0  0  0  0  0  0
    1.1200   -2.5970    0.2880 H   0  0  0  0  0  0  0  0  0  0  0  0
    0.5090   -1.7080    1.6730 H   0  0  0  0  0  0  0  0  0  0  0  0
   -0.8500   -1.7480   -0.0010 C   0  0  0  0  0  0  0  0  0  0  0  0
   -1.3570   -2.6120    0.4440 H   0  0  0  0  0  0  0  0  0  0  0  0
   -0.7880   -1.9500   -1.0740 H   0  0  0  0  0  0  0  0  0  0  0  0
    1.4340    1.9710    0.3380 C   0  0  0  0  0  0  0  0  0  0  0  0
    1.3990    2.3510   -0.6890 H   0  0  0  0  0  0  0  0  0  0  0  0
    1.1920    2.8030    1.0080 H   0  0  0  0  0  0  0  0  0  0  0  0
    2.8280    1.3920    0.6490 C   0  0  0  0  0  0  0  0  0  0  0  0
    3.2750    1.8830    1.5200 H   0  0  0  0  0  0  0  0  0  0  0  0
    3.4770    1.5850   -0.2090 H   0  0  0  0  0  0  0  0  0  0  0  0
    3.8440   -1.0330    0.6670 C   0  0  3  0  0  0  0  0  0  0  0  0
   -1.6790    2.0900    0.2720 C   0  0  0  0  0  0  0  0  0  0  0  0
   -1.7270    2.1620    1.3660 H   0  0  0  0  0  0  0  0  0  0  0  0
   -1.1590    2.9880   -0.0810 H   0  0  0  0  0  0  0  0  0  0  0  0
    4.4310   -0.8770   -0.6550 O   0  0  0  0  0  0  0  0  0  0  0  0
    5.4210   -0.1000   -1.1340 C   0  0  0  0  0  0  0  0  0  0  0  0
   -3.8590    0.8200    0.1010 C   0  0  1  0  0  0  0  0  0  0  0  0
   -3.0980    2.0930   -0.2900 C   0  0  0  0  0  0  0  0  0  0  0  0
   -3.0640    2.2030   -1.3800 H   0  0  0  0  0  0  0  0  0  0  0  0
   -3.6280    2.9730    0.0930 H   0  0  0  0  0  0  0  0  0  0  0  0
    5.6670   -0.0820   -2.3390 O   0  0  0  0  0  0  0  0  0  0  0  0
   -5.4200   -1.5730    0.0840 C   0  0  0  0  0  0  0  0  0  0  0  0
   -6.0080   -2.4770    0.2250 H   0  0  0  0  0  0  0  0  0  0  0  0
   -6.0420   -0.4230   -0.2110 C   0  0  0  0  0  0  0  0  0  0  0  0
   -7.1230   -0.4110   -0.3240 H   0  0  0  0  0  0  0  0  0  0  0  0
   -3.9290   -1.6940    0.2350 C   0  0  0  0  0  0  0  0  0  0  0  0
   -3.6090   -2.6210   -0.2550 H   0  0  0  0  0  0  0  0  0  0  0  0
   -3.7180   -1.8140    1.3050 H   0  0  0  0  0  0  0  0  0  0  0  0
    1.5930   -0.5200   -1.4080 C   0  0  0  0  0  0  0  0  0  0  0  0
    0.6730   -0.5430   -1.9980 H   0  0  0  0  0  0  0  0  0  0  0  0
    2.1380   -1.4380   -1.6540 H   0  0  0  0  0  0  0  0  0  0  0  0
    2.1810    0.3230   -1.7820 H   0  0  0  0  0  0  0  0  0  0  0  0
   -3.0830   -0.6190   -1.8860 C   0  0  0  0  0  0  0  0  0  0  0  0
   -4.0830   -0.6120   -2.3300 H   0  0  0  0  0  0  0  0  0  0  0  0
   -2.6220   -1.5630   -2.1940 H   0  0  0  0  0  0  0  0  0  0  0  0
   -2.5190    0.1890   -2.3600 H   0  0  0  0  0  0  0  0  0  0  0  0
   -5.3170    0.8780   -0.3930 C   0  0  0  0  0  0  0  0  0  0  0  0
   -5.8500    1.6570    0.1660 H   0  0  0  0  0  0  0  0  0  0  0  0
   -5.3630    1.1640   -1.4500 H   0  0  0  0  0  0  0  0  0  0  0  0
    4.8380   -1.0330    1.8260 C   0  0  0  0  0  0  0  0  0  0  0  0
    4.3810   -1.4800    2.7160 H   0  0  0  0  0  0  0  0  0  0  0  0
    5.1460   -0.0240    2.1080 H   0  0  0  0  0  0  0  0  0  0  0  0
    5.7320   -1.6130    1.5770 H   0  0  0  0  0  0  0  0  0  0  0  0
    6.2400    0.7100   -0.1810 C   0  0  0  0  0  0  0  0  0  0  0  0
    5.6180    1.3430    0.4490 H   0  0  0  0  0  0  0  0  0  0  0  0
    6.8840    1.3820   -0.7590 H   0  0  0  0  0  0  0  0  0  0  0  0
    6.8900    0.0610    0.4080 H   0  0  0  0  0  0  0  0  0  0  0  0
    0.3020    0.7330    1.6190 H   0  0  0  0  0  0  0  0  0  0  0  0
   -0.7680    0.8670   -1.2190 H   0  0  0  0  0  0  0  0  0  0  0  0
   -1.7990   -0.4190    1.3590 H   0  0  0  0  0  0  0  0  0  0  0  0
   -3.9040    0.8090    1.2020 H   0  0  0  0  0  0  0  0  0  0  0  0
    2.3750   -0.2230    1.9820 H   0  0  0  0  0  0  0  0  0  0  0  0
    3.4600   -2.0610    0.6430 H   0  0  0  0  0  0  0  0  0  0  0  0
  1  2  1  0  0  0  0
  1  6  1  0  0  0  0
  1  7  1  0  0  0  0
  1 37  1  0  0  0  0
  2  4  1  0  0  0  0
  2 13  1  0  0  0  0
  2 56  1  0  0  0  0
  3  4  1  0  0  0  0
  3  5  1  0  0  0  0
  3 10  1  0  0  0  0
  3 58  1  0  0  0  0
  4 20  1  0  0  0  0
  4 57  1  0  0  0  0
  5 25  1  0  0  0  0
  5 34  1  0  0  0  0
  5 41  1  0  0  0  0
  6 16  1  0  0  0  0
  6 19  1  0  0  0  0
  6 60  1  0  0  0  0
  7  8  1  0  0  0  0
  7  9  1  0  0  0  0
  7 10  1  0  0  0  0
 10 11  1  0  0  0  0
 10 12  1  0  0  0  0
 13 14  1  0  0  0  0
 13 15  1  0  0  0  0
 13 16  1  0  0  0  0
 16 17  1  0  0  0  0
 16 18  1  0  0  0  0
 19 23  1  0  0  0  0
 19 48  1  0  0  0  0
 19 61  1  0  0  0  0
 20 21  1  0  0  0  0
 20 22  1  0  0  0  0
 20 26  1  0  0  0  0
 23 24  1  0  0  0  0
 24 29  2  0  0  0  0
 24 52  1  0  0  0  0
 25 26  1  0  0  0  0
 25 45  1  0  0  0  0
 25 59  1  0  0  0  0
 26 27  1  0  0  0  0
 26 28  1  0  0  0  0
 30 31  1  0  0  0  0
 30 32  2  0  0  0  0
 30 34  1  0  0  0  0
 32 33  1  0  0  0  0
 32 45  1  0  0  0  0
 34 35  1  0  0  0  0
 34 36  1  0  0  0  0
 37 38  1  0  0  0  0
 37 39  1  0  0  0  0
 37 40  1  0  0  0  0
 41 42  1  0  0  0  0
 41 43  1  0  0  0  0
 41 44  1  0  0  0  0
 45 46  1  0  0  0  0
 45 47  1  0  0  0  0
 48 49  1  0  0  0  0
 48 50  1  0  0  0  0
 48 51  1  0  0  0  0
 52 53  1  0  0  0  0
 52 54  1  0  0  0  0
 52 55  1  0  0  0  0
M  END
>  <IDNUMBER>
AO-774/41465498

>  <NAME>
pregn-2-en-20-yl acetate

>  <ADD_INFO>
http://www.specs.net/enter.php?specsid=AO-774/41465498

>  <H_ACCEPTORS>
2

>  <H_DONORS>
0

>  <ROTATABLE_BONDS>
3

>  <LOGP>
6.8099999

>  <LOGS>
-7.5300002

>  <TPSA>
26.299999

>  <PRICE>
N06

$$$$
AO-774/41465499
  MOE2011           3D

 91 96  0  0  1  0  0  0  0  0999 V2000
   -4.3330   -0.0910   -0.1400 C   0  0  1  0  0  0  0  0  0  0  0  0
   -0.2170    1.7180   -0.1600 C   0  0  2  0  0  0  0  0  0  0  0  0
   -3.8660    0.8320    1.0150 C   0  0  2  0  0  0  0  0  0  0  0  0
   -1.7800    1.5230   -0.2010 C   0  0  2  0  0  0  0  0  0  0  0  0
   -2.3410    0.9410    1.1330 C   0  0  1  0  0  0  0  0  0  0  0  0
   -5.8730   -0.0030    0.0840 C   0  0  2  0  0  0  0  0  0  0  0  0
    0.1380    2.5820    1.0880 C   0  0  2  0  0  0  0  0  0  0  0  0
   -3.8160    0.5360   -1.4470 C   0  0  0  0  0  0  0  0  0  0  0  0
   -4.0770   -0.0830   -2.3110 H   0  0  0  0  0  0  0  0  0  0  0  0
   -4.2910    1.5120   -1.6100 H   0  0  0  0  0  0  0  0  0  0  0  0
    6.8430   -1.7940    1.1660 C   0  0  0  0  0  0  0  0  0  0  0  0
   -2.2880    0.7290   -1.4320 C   0  0  0  0  0  0  0  0  0  0  0  0
   -2.0060    1.2480   -2.3550 H   0  0  0  0  0  0  0  0  0  0  0  0
   -1.8100   -0.2530   -1.4790 H   0  0  0  0  0  0  0  0  0  0  0  0
    4.5570    4.1260   -0.5990 C   0  0  0  0  0  0  0  0  0  0  0  0
   -4.6550    0.3360    2.2200 C   0  0  0  0  0  0  0  0  0  0  0  0
   -4.1660   -0.5220    2.6940 H   0  0  0  0  0  0  0  0  0  0  0  0
   -4.7730    1.1120    2.9820 H   0  0  0  0  0  0  0  0  0  0  0  0
    0.2570    2.4830   -1.4390 C   0  0  0  0  0  0  0  0  0  0  0  0
    0.5810    1.7640   -2.2020 H   0  0  0  0  0  0  0  0  0  0  0  0
   -0.5790    3.0330   -1.8890 H   0  0  0  0  0  0  0  0  0  0  0  0
   -6.0120   -0.0770    1.6310 C   0  0  0  0  0  0  0  0  0  0  0  0
   -6.8050    0.6000    1.9680 H   0  0  0  0  0  0  0  0  0  0  0  0
   -6.2730   -1.0800    1.9850 H   0  0  0  0  0  0  0  0  0  0  0  0
   -6.8430   -0.9770   -0.6210 C   0  0  3  0  0  0  0  0  0  0  0  0
   -1.9290    1.8140    2.3260 C   0  0  0  0  0  0  0  0  0  0  0  0
   -2.4170    2.7950    2.2580 H   0  0  0  0  0  0  0  0  0  0  0  0
   -2.2690    1.3580    3.2630 H   0  0  0  0  0  0  0  0  0  0  0  0
   -6.5910   -2.3310   -0.2000 O   0  0  0  0  0  0  0  0  0  0  0  0
   -7.6430   -3.1940   -0.2230 C   0  0  0  0  0  0  0  0  0  0  0  0
    6.3540   -0.5900    0.4530 C   0  0  0  0  0  0  0  0  0  0  0  0
    1.6450    2.8740    1.2200 C   0  0  0  0  0  0  0  0  0  0  0  0
    2.1490    2.0610    1.7600 H   0  0  0  0  0  0  0  0  0  0  0  0
    1.7780    3.7610    1.8540 H   0  0  0  0  0  0  0  0  0  0  0  0
   -0.4180    2.0100    2.3980 C   0  0  0  0  0  0  0  0  0  0  0  0
    0.0660    1.0570    2.6400 H   0  0  0  0  0  0  0  0  0  0  0  0
   -0.1890    2.6930    3.2260 H   0  0  0  0  0  0  0  0  0  0  0  0
    3.3700    4.0830    0.0520 O   0  0  0  0  0  0  0  0  0  0  0  0
    7.0610   -1.7280    2.3730 O   0  0  0  0  0  0  0  0  0  0  0  0
    5.3260    5.0710   -0.4260 O   0  0  0  0  0  0  0  0  0  0  0  0
    7.0740   -3.0770    0.4580 C   0  0  0  0  0  0  0  0  0  0  0  0
    2.3550    3.0680   -0.1270 C   0  0  2  0  0  0  0  0  0  0  0  0
   -8.7860   -2.9260   -0.5630 O   0  0  0  0  0  0  0  0  0  0  0  0
    4.9300    2.9830   -1.5150 C   0  0  0  0  0  0  0  0  0  0  0  0
    4.0920    2.7690   -2.1850 H   0  0  0  0  0  0  0  0  0  0  0  0
    5.7330    3.3370   -2.1750 H   0  0  0  0  0  0  0  0  0  0  0  0
    5.4230   -0.6810   -0.5850 C   0  0  0  0  0  0  0  0  0  0  0  0
    5.0260   -1.6420   -0.9050 H   0  0  0  0  0  0  0  0  0  0  0  0
    6.8130    0.6640    0.8690 C   0  0  0  0  0  0  0  0  0  0  0  0
    7.5280    0.7440    1.6850 H   0  0  0  0  0  0  0  0  0  0  0  0
    1.3790    3.5030   -1.2100 C   0  0  0  0  0  0  0  0  0  0  0  0
    0.9430    4.4730   -0.9340 H   0  0  0  0  0  0  0  0  0  0  0  0
    1.9040    3.6910   -2.1540 H   0  0  0  0  0  0  0  0  0  0  0  0
   -3.8140   -1.5440   -0.0190 C   0  0  0  0  0  0  0  0  0  0  0  0
   -2.7240   -1.6040    0.0240 H   0  0  0  0  0  0  0  0  0  0  0  0
   -4.1200   -2.1390   -0.8860 H   0  0  0  0  0  0  0  0  0  0  0  0
   -4.1880   -2.0490    0.8780 H   0  0  0  0  0  0  0  0  0  0  0  0
    5.4240    1.7430   -0.8080 C   0  0  0  0  0  0  0  0  0  0  0  0
    0.4940    0.3390   -0.1070 C   0  0  0  0  0  0  0  0  0  0  0  0
    1.5780    0.4270   -0.0120 H   0  0  0  0  0  0  0  0  0  0  0  0
    0.3160   -0.2390   -1.0190 H   0  0  0  0  0  0  0  0  0  0  0  0
    0.1580   -0.2720    0.7350 H   0  0  0  0  0  0  0  0  0  0  0  0
    4.9730    0.4790   -1.2190 C   0  0  0  0  0  0  0  0  0  0  0  0
    4.2530    0.3890   -2.0310 H   0  0  0  0  0  0  0  0  0  0  0  0
    6.3600    1.8220    0.2320 C   0  0  0  0  0  0  0  0  0  0  0  0
    6.7450    2.7860    0.5620 H   0  0  0  0  0  0  0  0  0  0  0  0
   -6.7650   -0.9070   -2.1430 C   0  0  0  0  0  0  0  0  0  0  0  0
   -6.8030    0.1260   -2.5000 H   0  0  0  0  0  0  0  0  0  0  0  0
   -7.6050   -1.4480   -2.5910 H   0  0  0  0  0  0  0  0  0  0  0  0
   -5.8620   -1.3930   -2.5210 H   0  0  0  0  0  0  0  0  0  0  0  0
   -7.1940   -4.5460    0.2410 C   0  0  0  0  0  0  0  0  0  0  0  0
   -6.3930   -4.9130   -0.4060 H   0  0  0  0  0  0  0  0  0  0  0  0
   -8.0330   -5.2450    0.1860 H   0  0  0  0  0  0  0  0  0  0  0  0
   -6.8540   -4.4870    1.2780 H   0  0  0  0  0  0  0  0  0  0  0  0
    7.5710   -3.1130   -0.8510 C   0  0  0  0  0  0  0  0  0  0  0  0
    7.8110   -2.2010   -1.3900 H   0  0  0  0  0  0  0  0  0  0  0  0
    6.8250   -4.2720    1.1440 C   0  0  0  0  0  0  0  0  0  0  0  0
    6.4620   -4.2540    2.1700 H   0  0  0  0  0  0  0  0  0  0  0  0
    7.7870   -4.3420   -1.4770 C   0  0  0  0  0  0  0  0  0  0  0  0
    8.1740   -4.3760   -2.4930 H   0  0  0  0  0  0  0  0  0  0  0  0
    7.0430   -5.4960    0.5130 C   0  0  0  0  0  0  0  0  0  0  0  0
    6.8450   -6.4240    1.0440 H   0  0  0  0  0  0  0  0  0  0  0  0
    7.5200   -5.5310   -0.7970 C   0  0  0  0  0  0  0  0  0  0  0  0
    7.6920   -6.4860   -1.2870 H   0  0  0  0  0  0  0  0  0  0  0  0
   -1.9270   -0.0570    1.3060 H   0  0  0  0  0  0  0  0  0  0  0  0
   -2.2120    2.5320   -0.3010 H   0  0  0  0  0  0  0  0  0  0  0  0
   -4.2360    1.8520    0.8120 H   0  0  0  0  0  0  0  0  0  0  0  0
   -0.3530    3.5590    0.9500 H   0  0  0  0  0  0  0  0  0  0  0  0
   -6.1890    1.0100   -0.2140 H   0  0  0  0  0  0  0  0  0  0  0  0
   -7.8570   -0.6870   -0.3120 H   0  0  0  0  0  0  0  0  0  0  0  0
    2.8170    2.1230   -0.4080 H   0  0  0  0  0  0  0  0  0  0  0  0
  1  3  1  0  0  0  0
  1  6  1  0  0  0  0
  1  8  1  0  0  0  0
  1 54  1  0  0  0  0
  2  4  1  0  0  0  0
  2  7  1  0  0  0  0
  2 19  1  0  0  0  0
  2 59  1  0  0  0  0
  3  5  1  0  0  0  0
  3 16  1  0  0  0  0
  3 87  1  0  0  0  0
  4  5  1  0  0  0  0
  4 12  1  0  0  0  0
  4 86  1  0  0  0  0
  5 26  1  0  0  0  0
  5 85  1  0  0  0  0
  6 22  1  0  0  0  0
  6 25  1  0  0  0  0
  6 89  1  0  0  0  0
  7 32  1  0  0  0  0
  7 35  1  0  0  0  0
  7 88  1  0  0  0  0
  8  9  1  0  0  0  0
  8 10  1  0  0  0  0
  8 12  1  0  0  0  0
 11 31  1  0  0  0  0
 11 39  2  0  0  0  0
 11 41  1  0  0  0  0
 12 13  1  0  0  0  0
 12 14  1  0  0  0  0
 15 38  1  0  0  0  0
 15 40  2  0  0  0  0
 15 44  1  0  0  0  0
 16 17  1  0  0  0  0
 16 18  1  0  0  0  0
 16 22  1  0  0  0  0
 19 20  1  0  0  0  0
 19 21  1  0  0  0  0
 19 51  1  0  0  0  0
 22 23  1  0  0  0  0
 22 24  1  0  0  0  0
 25 29  1  0  0  0  0
 25 67  1  0  0  0  0
 25 90  1  0  0  0  0
 26 27  1  0  0  0  0
 26 28  1  0  0  0  0
 26 35  1  0  0  0  0
 29 30  1  0  0  0  0
 30 43  2  0  0  0  0
 30 71  1  0  0  0  0
 31 47  2  0  0  0  0
 31 49  1  0  0  0  0
 32 33  1  0  0  0  0
 32 34  1  0  0  0  0
 32 42  1  0  0  0  0
 35 36  1  0  0  0  0
 35 37  1  0  0  0  0
 38 42  1  0  0  0  0
 41 75  2  0  0  0  0
 41 77  1  0  0  0  0
 42 51  1  0  0  0  0
 42 91  1  0  0  0  0
 44 45  1  0  0  0  0
 44 46  1  0  0  0  0
 44 58  1  0  0  0  0
 47 48  1  0  0  0  0
 47 63  1  0  0  0  0
 49 50  1  0  0  0  0
 49 65  2  0  0  0  0
 51 52  1  0  0  0  0
 51 53  1  0  0  0  0
 54 55  1  0  0  0  0
 54 56  1  0  0  0  0
 54 57  1  0  0  0  0
 58 63  2  0  0  0  0
 58 65  1  0  0  0  0
 59 60  1  0  0  0  0
 59 61  1  0  0  0  0
 59 62  1  0  0  0  0
 63 64  1  0  0  0  0
 65 66  1  0  0  0  0
 67 68  1  0  0  0  0
 67 69  1  0  0  0  0
 67 70  1  0  0  0  0
 71 72  1  0  0  0  0
 71 73  1  0  0  0  0
 71 74  1  0  0  0  0
 75 76  1  0  0  0  0
 75 79  1  0  0  0  0
 77 78  1  0  0  0  0
 77 81  2  0  0  0  0
 79 80  1  0  0  0  0
 79 83  2  0  0  0  0
 81 82  1  0  0  0  0
 81 83  1  0  0  0  0
 83 84  1  0  0  0  0
M  END
>  <IDNUMBER>
AO-774/41465499

>  <NAME>
Pregnane-3,16,20-triol, Derivative of

>  <ADD_INFO>
http://www.specs.net/enter.php?specsid=AO-774/41465499

>  <H_ACCEPTORS>
5

>  <H_DONORS>
0

>  <ROTATABLE_BONDS>
9

>  <LOGP>
9.3599997

>  <LOGS>
-11.45

>  <TPSA>
69.669998

>  <PRICE>
N06

$$$$
AO-774/41465512
  MOE2011           3D

 75 79  0  0  1  0  0  0  0  0999 V2000
   -2.8200    0.4950   -0.4920 C   0  0  1  0  0  0  0  0  0  0  0  0
    1.5790    1.2760   -0.2390 C   0  0  1  0  0  0  0  0  0  0  0  0
   -3.6150    0.7970    0.7870 C   0  0  0  0  0  0  0  0  0  0  0  0
   -1.2810    0.3170   -0.1710 C   0  0  2  0  0  0  0  0  0  0  0  0
    0.7280    1.2290    1.0500 C   0  0  2  0  0  0  0  0  0  0  0  0
   -0.7730    1.4170    0.8040 C   0  0  2  0  0  0  0  0  0  0  0  0
    4.4260    0.5250   -1.6630 C   0  0  0  0  0  0  0  0  0  0  0  0
    2.9930    1.1240    0.3910 C   0  0  1  0  0  0  0  0  0  0  0  0
   -3.0300    1.1640    1.9410 C   0  0  0  0  0  0  0  0  0  0  0  0
   -3.6410    1.3480    2.8230 H   0  0  0  0  0  0  0  0  0  0  0  0
    4.6200   -0.8410   -1.4440 N   0  0  0  0  0  0  0  0  0  0  0  0
    4.2170    1.4570   -0.4720 C   0  0  0  0  0  0  0  0  0  0  0  0
    5.1170    1.4890    0.1440 H   0  0  0  0  0  0  0  0  0  0  0  0
    4.1310    2.4760   -0.8680 H   0  0  0  0  0  0  0  0  0  0  0  0
    1.1230    0.1020   -1.1200 C   0  0  0  0  0  0  0  0  0  0  0  0
    1.6760    0.0870   -2.0650 H   0  0  0  0  0  0  0  0  0  0  0  0
    1.3350   -0.8520   -0.6200 H   0  0  0  0  0  0  0  0  0  0  0  0
   -1.5570    1.3550    2.1250 C   0  0  0  0  0  0  0  0  0  0  0  0
   -1.3910    2.2840    2.6830 H   0  0  0  0  0  0  0  0  0  0  0  0
   -1.1880    0.5360    2.7550 H   0  0  0  0  0  0  0  0  0  0  0  0
   -0.3830    0.1740   -1.4290 C   0  0  0  0  0  0  0  0  0  0  0  0
   -0.6580   -0.7350   -1.9760 H   0  0  0  0  0  0  0  0  0  0  0  0
   -0.5500    1.0060   -2.1180 H   0  0  0  0  0  0  0  0  0  0  0  0
   -3.3450   -0.8340   -1.1140 C   0  0  0  0  0  0  0  0  0  0  0  0
   -2.9170   -0.9820   -2.1120 H   0  0  0  0  0  0  0  0  0  0  0  0
   -3.0090   -1.6830   -0.5040 H   0  0  0  0  0  0  0  0  0  0  0  0
    1.4350    2.1990    1.9890 C   0  0  0  0  0  0  0  0  0  0  0  0
    1.1140    3.2330    1.8160 H   0  0  0  0  0  0  0  0  0  0  0  0
    1.2440    1.9650    3.0420 H   0  0  0  0  0  0  0  0  0  0  0  0
   -5.1200    0.6590    0.7090 C   0  0  0  0  0  0  0  0  0  0  0  0
   -5.5350    1.4750    0.1050 H   0  0  0  0  0  0  0  0  0  0  0  0
   -5.5860    0.7730    1.6960 H   0  0  0  0  0  0  0  0  0  0  0  0
   -7.7800   -1.7430    0.0040 C   0  0  0  0  0  0  0  0  0  0  0  0
    4.3390    1.0040   -2.8000 O   0  0  0  0  0  0  0  0  0  0  0  0
    2.9240    2.0370    1.6440 C   0  0  0  0  0  0  0  0  0  0  0  0
    3.4730    1.5800    2.4750 H   0  0  0  0  0  0  0  0  0  0  0  0
    3.3710    3.0210    1.4600 H   0  0  0  0  0  0  0  0  0  0  0  0
   -6.9750   -0.6560   -0.0640 O   0  0  0  0  0  0  0  0  0  0  0  0
    5.0970   -1.4340   -0.2360 C   0  0  0  0  0  0  0  0  0  0  0  0
   -5.5400   -0.6920    0.1240 C   0  0  1  0  0  0  0  0  0  0  0  0
   -8.9750   -1.6620   -0.2640 O   0  0  0  0  0  0  0  0  0  0  0  0
   -4.8670   -0.9170   -1.2300 C   0  0  0  0  0  0  0  0  0  0  0  0
   -5.1500   -1.8960   -1.6320 H   0  0  0  0  0  0  0  0  0  0  0  0
   -5.2390   -0.1880   -1.9620 H   0  0  0  0  0  0  0  0  0  0  0  0
   -3.0560    1.6560   -1.4880 C   0  0  0  0  0  0  0  0  0  0  0  0
   -2.6430    1.4310   -2.4770 H   0  0  0  0  0  0  0  0  0  0  0  0
   -2.6030    2.5890   -1.1390 H   0  0  0  0  0  0  0  0  0  0  0  0
   -4.1200    1.8610   -1.6450 H   0  0  0  0  0  0  0  0  0  0  0  0
    1.4540    2.6040   -1.0240 C   0  0  0  0  0  0  0  0  0  0  0  0
    2.0230    2.5570   -1.9590 H   0  0  0  0  0  0  0  0  0  0  0  0
    1.8320    3.4610   -0.4580 H   0  0  0  0  0  0  0  0  0  0  0  0
    0.4220    2.8390   -1.2980 H   0  0  0  0  0  0  0  0  0  0  0  0
    4.3150   -1.7480   -2.5490 C   0  0  0  0  0  0  0  0  0  0  0  0
    5.0670   -2.5420   -2.6060 H   0  0  0  0  0  0  0  0  0  0  0  0
    4.3040   -1.2260   -3.5100 H   0  0  0  0  0  0  0  0  0  0  0  0
    3.3210   -2.1790   -2.3920 H   0  0  0  0  0  0  0  0  0  0  0  0
   -7.1630   -3.0370    0.4440 C   0  0  0  0  0  0  0  0  0  0  0  0
   -6.8110   -2.9570    1.4750 H   0  0  0  0  0  0  0  0  0  0  0  0
   -6.3600   -3.3370   -0.2320 H   0  0  0  0  0  0  0  0  0  0  0  0
   -7.9260   -3.8210    0.4130 H   0  0  0  0  0  0  0  0  0  0  0  0
    4.5830   -2.6630    0.2070 C   0  0  0  0  0  0  0  0  0  0  0  0
    3.7820   -3.1610   -0.3320 H   0  0  0  0  0  0  0  0  0  0  0  0
    6.1370   -0.8480    0.4980 C   0  0  0  0  0  0  0  0  0  0  0  0
    6.6370    0.0480    0.1420 H   0  0  0  0  0  0  0  0  0  0  0  0
    5.0560   -3.2580    1.3800 C   0  0  0  0  0  0  0  0  0  0  0  0
    4.6330   -4.1990    1.7190 H   0  0  0  0  0  0  0  0  0  0  0  0
    6.6120   -1.4430    1.6700 C   0  0  0  0  0  0  0  0  0  0  0  0
    7.4220   -0.9770    2.2250 H   0  0  0  0  0  0  0  0  0  0  0  0
    6.0660   -2.6440    2.1150 C   0  0  0  0  0  0  0  0  0  0  0  0
    6.4380   -3.1080    3.0250 H   0  0  0  0  0  0  0  0  0  0  0  0
   -0.9450    2.4060    0.3630 H   0  0  0  0  0  0  0  0  0  0  0  0
   -1.1760   -0.6370    0.3720 H   0  0  0  0  0  0  0  0  0  0  0  0
    0.8470    0.2300    1.5010 H   0  0  0  0  0  0  0  0  0  0  0  0
    3.0890    0.0940    0.7560 H   0  0  0  0  0  0  0  0  0  0  0  0
   -5.2560   -1.4790    0.8300 H   0  0  0  0  0  0  0  0  0  0  0  0
  1  3  1  0  0  0  0
  1  4  1  0  0  0  0
  1 24  1  0  0  0  0
  1 45  1  0  0  0  0
  2  5  1  0  0  0  0
  2  8  1  0  0  0  0
  2 15  1  0  0  0  0
  2 49  1  0  0  0  0
  3  9  2  0  0  0  0
  3 30  1  0  0  0  0
  4  6  1  0  0  0  0
  4 21  1  0  0  0  0
  4 72  1  0  0  0  0
  5  6  1  0  0  0  0
  5 27  1  0  0  0  0
  5 73  1  0  0  0  0
  6 18  1  0  0  0  0
  6 71  1  0  0  0  0
  7 11  1  0  0  0  0
  7 12  1  0  0  0  0
  7 34  2  0  0  0  0
  8 12  1  0  0  0  0
  8 35  1  0  0  0  0
  8 74  1  0  0  0  0
  9 10  1  0  0  0  0
  9 18  1  0  0  0  0
 11 39  1  0  0  0  0
 11 53  1  0  0  0  0
 12 13  1  0  0  0  0
 12 14  1  0  0  0  0
 15 16  1  0  0  0  0
 15 17  1  0  0  0  0
 15 21  1  0  0  0  0
 18 19  1  0  0  0  0
 18 20  1  0  0  0  0
 21 22  1  0  0  0  0
 21 23  1  0  0  0  0
 24 25  1  0  0  0  0
 24 26  1  0  0  0  0
 24 42  1  0  0  0  0
 27 28  1  0  0  0  0
 27 29  1  0  0  0  0
 27 35  1  0  0  0  0
 30 31  1  0  0  0  0
 30 32  1  0  0  0  0
 30 40  1  0  0  0  0
 33 38  1  0  0  0  0
 33 41  2  0  0  0  0
 33 57  1  0  0  0  0
 35 36  1  0  0  0  0
 35 37  1  0  0  0  0
 38 40  1  0  0  0  0
 39 61  2  0  0  0  0
 39 63  1  0  0  0  0
 40 42  1  0  0  0  0
 40 75  1  0  0  0  0
 42 43  1  0  0  0  0
 42 44  1  0  0  0  0
 45 46  1  0  0  0  0
 45 47  1  0  0  0  0
 45 48  1  0  0  0  0
 49 50  1  0  0  0  0
 49 51  1  0  0  0  0
 49 52  1  0  0  0  0
 53 54  1  0  0  0  0
 53 55  1  0  0  0  0
 53 56  1  0  0  0  0
 57 58  1  0  0  0  0
 57 59  1  0  0  0  0
 57 60  1  0  0  0  0
 61 62  1  0  0  0  0
 61 65  1  0  0  0  0
 63 64  1  0  0  0  0
 63 67  2  0  0  0  0
 65 66  1  0  0  0  0
 65 69  2  0  0  0  0
 67 68  1  0  0  0  0
 67 69  1  0  0  0  0
 69 70  1  0  0  0  0
M  END
>  <IDNUMBER>
AO-774/41465512

>  <NAME>
21-(methylanilino)-21-oxopregn-5-en-3-yl acetate

>  <ADD_INFO>
http://www.specs.net/enter.php?specsid=AO-774/41465512

>  <H_ACCEPTORS>
4

>  <H_DONORS>
0

>  <ROTATABLE_BONDS>
6

>  <LOGP>
6.5500002

>  <LOGS>
-8.1700001

>  <TPSA>
46.610001

>  <PRICE>
N06

$$$$
AO-774/41465515
  MOE2011           3D

 64 67  0  0  1  0  0  0  0  0999 V2000
    1.5480   -0.3070   -0.0180 C   0  0  2  0  0  0  0  0  0  0  0  0
   -2.9330   -0.0740    0.2490 C   0  0  2  0  0  0  0  0  0  0  0  0
    0.0160   -0.2500   -0.3810 C   0  0  2  0  0  0  0  0  0  0  0  0
   -2.1130    1.0840   -0.3720 C   0  0  2  0  0  0  0  0  0  0  0  0
   -0.6430    1.0930    0.0670 C   0  0  2  0  0  0  0  0  0  0  0  0
    2.2280    0.9420   -0.6680 C   0  0  2  0  0  0  0  0  0  0  0  0
   -2.3010   -1.3850   -0.2470 C   0  0  0  0  0  0  0  0  0  0  0  0
   -2.8070   -2.2550    0.1840 H   0  0  0  0  0  0  0  0  0  0  0  0
   -2.4160   -1.4690   -1.3350 H   0  0  0  0  0  0  0  0  0  0  0  0
   -0.8030   -1.4760    0.0970 C   0  0  0  0  0  0  0  0  0  0  0  0
   -0.4140   -2.3880   -0.3690 H   0  0  0  0  0  0  0  0  0  0  0  0
   -0.6940   -1.6110    1.1770 H   0  0  0  0  0  0  0  0  0  0  0  0
    2.2060   -1.5770   -0.6310 C   0  0  0  0  0  0  0  0  0  0  0  0
    1.8090   -2.4840   -0.1600 H   0  0  0  0  0  0  0  0  0  0  0  0
    1.9480   -1.6430   -1.6970 H   0  0  0  0  0  0  0  0  0  0  0  0
    0.1090    2.3000   -0.5120 C   0  0  0  0  0  0  0  0  0  0  0  0
   -0.0280    2.3350   -1.6010 H   0  0  0  0  0  0  0  0  0  0  0  0
   -0.3090    3.2310   -0.1130 H   0  0  0  0  0  0  0  0  0  0  0  0
   -2.9600    2.3190   -0.0980 C   0  0  0  0  0  0  0  0  0  0  0  0
   -2.7840    2.7120    0.9100 H   0  0  0  0  0  0  0  0  0  0  0  0
   -2.7550    3.1260   -0.8090 H   0  0  0  0  0  0  0  0  0  0  0  0
    6.3990   -0.3430    0.3190 C   0  0  0  0  0  0  0  0  0  0  0  0
   -4.3310    0.2650   -0.3410 C   0  0  2  0  0  0  0  0  0  0  0  0
    3.7530    0.9570   -0.4860 C   0  0  0  0  0  0  0  0  0  0  0  0
    4.0120    1.1140    0.5650 H   0  0  0  0  0  0  0  0  0  0  0  0
    4.1870    1.8140   -1.0160 H   0  0  0  0  0  0  0  0  0  0  0  0
    1.6020    2.2600   -0.2000 C   0  0  0  0  0  0  0  0  0  0  0  0
    1.7640    2.4100    0.8740 H   0  0  0  0  0  0  0  0  0  0  0  0
    2.0890    3.1030   -0.7060 H   0  0  0  0  0  0  0  0  0  0  0  0
    5.8180   -0.3410   -0.9100 O   0  0  0  0  0  0  0  0  0  0  0  0
   -4.4040    1.8140   -0.2320 C   0  0  0  0  0  0  0  0  0  0  0  0
   -4.8820    2.2310   -1.1250 H   0  0  0  0  0  0  0  0  0  0  0  0
   -4.9910    2.1400    0.6340 H   0  0  0  0  0  0  0  0  0  0  0  0
    4.3780   -0.3280   -1.0370 C   0  0  1  0  0  0  0  0  0  0  0  0
    5.8250   -0.3380    1.3980 O   0  0  0  0  0  0  0  0  0  0  0  0
    3.7310   -1.6060   -0.5000 C   0  0  0  0  0  0  0  0  0  0  0  0
    4.1310   -2.4700   -1.0450 H   0  0  0  0  0  0  0  0  0  0  0  0
    4.0070   -1.7800    0.5450 H   0  0  0  0  0  0  0  0  0  0  0  0
    1.7500   -0.3440    1.5180 C   0  0  0  0  0  0  0  0  0  0  0  0
    2.8050   -0.2950    1.8000 H   0  0  0  0  0  0  0  0  0  0  0  0
    1.3590   -1.2730    1.9470 H   0  0  0  0  0  0  0  0  0  0  0  0
    1.2540    0.4850    2.0290 H   0  0  0  0  0  0  0  0  0  0  0  0
   -2.9680   -0.0580    1.7970 C   0  0  0  0  0  0  0  0  0  0  0  0
   -3.5280   -0.9190    2.1800 H   0  0  0  0  0  0  0  0  0  0  0  0
   -3.4470    0.8420    2.1950 H   0  0  0  0  0  0  0  0  0  0  0  0
   -1.9720   -0.1110    2.2440 H   0  0  0  0  0  0  0  0  0  0  0  0
   -5.5320   -2.2860   -1.2010 O   0  0  0  0  0  0  0  0  0  0  0  0
   -5.6000   -3.2560   -1.2270 H   0  0  0  0  0  0  0  0  0  0  0  0
    7.8900   -0.3520    0.1660 C   0  0  0  0  0  0  0  0  0  0  0  0
    8.2050   -1.2650   -0.3450 H   0  0  0  0  0  0  0  0  0  0  0  0
    8.3570   -0.3270    1.1550 H   0  0  0  0  0  0  0  0  0  0  0  0
    8.2110    0.5320   -0.3900 H   0  0  0  0  0  0  0  0  0  0  0  0
   -5.5830   -0.3780    0.2780 C   0  0  0  0  0  0  0  0  0  0  0  0
   -6.4540    0.0500   -0.2360 H   0  0  0  0  0  0  0  0  0  0  0  0
   -5.6830   -0.0980    1.3330 H   0  0  0  0  0  0  0  0  0  0  0  0
   -5.6730   -1.8930    0.1550 C   0  0  0  0  0  0  0  0  0  0  0  0
   -6.6520   -2.2330    0.5100 H   0  0  0  0  0  0  0  0  0  0  0  0
   -4.9100   -2.3920    0.7550 H   0  0  0  0  0  0  0  0  0  0  0  0
   -0.0410   -0.2730   -1.4810 H   0  0  0  0  0  0  0  0  0  0  0  0
    2.0510    0.8830   -1.7530 H   0  0  0  0  0  0  0  0  0  0  0  0
   -0.6010    1.1790    1.1570 H   0  0  0  0  0  0  0  0  0  0  0  0
   -2.1120    0.9560   -1.4670 H   0  0  0  0  0  0  0  0  0  0  0  0
   -4.3230    0.0200   -1.4130 H   0  0  0  0  0  0  0  0  0  0  0  0
    4.2070   -0.3220   -2.1220 H   0  0  0  0  0  0  0  0  0  0  0  0
  1  3  1  0  0  0  0
  1  6  1  0  0  0  0
  1 13  1  0  0  0  0
  1 39  1  0  0  0  0
  2  4  1  0  0  0  0
  2  7  1  0  0  0  0
  2 23  1  0  0  0  0
  2 43  1  0  0  0  0
  3  5  1  0  0  0  0
  3 10  1  0  0  0  0
  3 59  1  0  0  0  0
  4  5  1  0  0  0  0
  4 19  1  0  0  0  0
  4 62  1  0  0  0  0
  5 16  1  0  0  0  0
  5 61  1  0  0  0  0
  6 24  1  0  0  0  0
  6 27  1  0  0  0  0
  6 60  1  0  0  0  0
  7  8  1  0  0  0  0
  7  9  1  0  0  0  0
  7 10  1  0  0  0  0
 10 11  1  0  0  0  0
 10 12  1  0  0  0  0
 13 14  1  0  0  0  0
 13 15  1  0  0  0  0
 13 36  1  0  0  0  0
 16 17  1  0  0  0  0
 16 18  1  0  0  0  0
 16 27  1  0  0  0  0
 19 20  1  0  0  0  0
 19 21  1  0  0  0  0
 19 31  1  0  0  0  0
 22 30  1  0  0  0  0
 22 35  2  0  0  0  0
 22 49  1  0  0  0  0
 23 31  1  0  0  0  0
 23 53  1  0  0  0  0
 23 63  1  0  0  0  0
 24 25  1  0  0  0  0
 24 26  1  0  0  0  0
 24 34  1  0  0  0  0
 27 28  1  0  0  0  0
 27 29  1  0  0  0  0
 30 34  1  0  0  0  0
 31 32  1  0  0  0  0
 31 33  1  0  0  0  0
 34 36  1  0  0  0  0
 34 64  1  0  0  0  0
 36 37  1  0  0  0  0
 36 38  1  0  0  0  0
 39 40  1  0  0  0  0
 39 41  1  0  0  0  0
 39 42  1  0  0  0  0
 43 44  1  0  0  0  0
 43 45  1  0  0  0  0
 43 46  1  0  0  0  0
 47 48  1  0  0  0  0
 47 56  1  0  0  0  0
 49 50  1  0  0  0  0
 49 51  1  0  0  0  0
 49 52  1  0  0  0  0
 53 54  1  0  0  0  0
 53 55  1  0  0  0  0
 53 56  1  0  0  0  0
 56 57  1  0  0  0  0
 56 58  1  0  0  0  0
M  END
>  <IDNUMBER>
AO-774/41465515

>  <NAME>
3,21-Dihydroxypregnan-20-one, Derivative of

>  <ADD_INFO>
http://www.specs.net/enter.php?specsid=AO-774/41465515

>  <H_ACCEPTORS>
3

>  <H_DONORS>
1

>  <ROTATABLE_BONDS>
4

>  <LOGP>
5.5599999

>  <LOGS>
-6.0900002

>  <TPSA>
46.529999

>  <PRICE>
N06

$$$$
AO-774/41465516
  MOE2011           3D

 57 60  0  0  1  0  0  0  0  0999 V2000
   -2.4280    0.2030    0.2290 C   0  0  1  0  0  0  0  0  0  0  0  0
    2.0200    0.5120   -0.1900 C   0  0  2  0  0  0  0  0  0  0  0  0
    0.5710    0.3320    0.3970 C   0  0  2  0  0  0  0  0  0  0  0  0
   -1.5350   -1.0430    0.4390 C   0  0  2  0  0  0  0  0  0  0  0  0
   -0.1550   -0.9110   -0.2150 C   0  0  2  0  0  0  0  0  0  0  0  0
    2.7960   -0.8200    0.0680 C   0  0  1  0  0  0  0  0  0  0  0  0
   -3.7030   -0.2950    0.9580 C   0  0  1  0  0  0  0  0  0  0  0  0
   -1.7300    1.3980    0.8930 C   0  0  0  0  0  0  0  0  0  0  0  0
   -2.3160    2.3140    0.7540 H   0  0  0  0  0  0  0  0  0  0  0  0
   -1.6600    1.2390    1.9770 H   0  0  0  0  0  0  0  0  0  0  0  0
   -0.3090    1.6090    0.3370 C   0  0  0  0  0  0  0  0  0  0  0  0
    0.1570    2.4100    0.9210 H   0  0  0  0  0  0  0  0  0  0  0  0
   -0.3790    1.9780   -0.6900 H   0  0  0  0  0  0  0  0  0  0  0  0
    2.7760    1.6500    0.5530 C   0  0  0  0  0  0  0  0  0  0  0  0
    2.3170    2.6230    0.3400 H   0  0  0  0  0  0  0  0  0  0  0  0
    2.6930    1.4960    1.6370 H   0  0  0  0  0  0  0  0  0  0  0  0
   -2.4400   -2.2050    0.0400 C   0  0  0  0  0  0  0  0  0  0  0  0
   -2.4190   -2.3770   -1.0420 H   0  0  0  0  0  0  0  0  0  0  0  0
   -2.1470   -3.1390    0.5300 H   0  0  0  0  0  0  0  0  0  0  0  0
    0.6790   -2.1870   -0.0300 C   0  0  0  0  0  0  0  0  0  0  0  0
    0.7200   -2.4520    1.0350 H   0  0  0  0  0  0  0  0  0  0  0  0
    0.1990   -3.0280   -0.5440 H   0  0  0  0  0  0  0  0  0  0  0  0
   -5.7030    0.8780   -0.3960 C   0  0  0  0  0  0  0  0  0  0  0  0
   -4.9640    0.5670    0.9090 C   0  0  0  0  0  0  0  0  0  0  0  0
   -4.7270    1.5260    1.3910 H   0  0  0  0  0  0  0  0  0  0  0  0
   -5.7160    0.0970    1.5600 H   0  0  0  0  0  0  0  0  0  0  0  0
    2.1030   -2.0340   -0.5600 C   0  0  0  0  0  0  0  0  0  0  0  0
    2.0890   -1.9540   -1.6520 H   0  0  0  0  0  0  0  0  0  0  0  0
    2.6640   -2.9460   -0.3230 H   0  0  0  0  0  0  0  0  0  0  0  0
   -3.8490   -1.7600    0.4840 C   0  0  0  0  0  0  0  0  0  0  0  0
   -4.2170   -2.3890    1.3020 H   0  0  0  0  0  0  0  0  0  0  0  0
   -4.5430   -1.8780   -0.3500 H   0  0  0  0  0  0  0  0  0  0  0  0
    4.2700   -0.7400   -0.3480 C   0  0  0  0  0  0  0  0  0  0  0  0
    4.3750   -0.6370   -1.4350 H   0  0  0  0  0  0  0  0  0  0  0  0
    4.7820   -1.6810   -0.1030 H   0  0  0  0  0  0  0  0  0  0  0  0
   -6.0640   -0.1200   -1.0780 O   0  0  0  0  0  0  0  0  0  0  0  0
    4.2600    1.7370    0.1890 C   0  0  0  0  0  0  0  0  0  0  0  0
    4.7450    2.5000    0.8130 H   0  0  0  0  0  0  0  0  0  0  0  0
    4.3830    2.0950   -0.8400 H   0  0  0  0  0  0  0  0  0  0  0  0
    4.9830    0.4050    0.3680 C   0  0  2  0  0  0  0  0  0  0  0  0
    1.9630    0.8690   -1.6980 C   0  0  0  0  0  0  0  0  0  0  0  0
    2.9570    0.9170   -2.1530 H   0  0  0  0  0  0  0  0  0  0  0  0
    1.5040    1.8500   -1.8570 H   0  0  0  0  0  0  0  0  0  0  0  0
    1.3910    0.1440   -2.2830 H   0  0  0  0  0  0  0  0  0  0  0  0
   -2.7010    0.5250   -1.2600 C   0  0  0  0  0  0  0  0  0  0  0  0
   -3.2570    1.4630   -1.3580 H   0  0  0  0  0  0  0  0  0  0  0  0
   -3.2780   -0.2580   -1.7610 H   0  0  0  0  0  0  0  0  0  0  0  0
   -1.7840    0.6560   -1.8400 H   0  0  0  0  0  0  0  0  0  0  0  0
   -5.8870    2.1090   -0.6180 O   0  5  0  0  0  0  0  0  0  0  0  0
    6.3080    0.5070   -0.1450 O   0  0  0  0  0  0  0  0  0  0  0  0
    6.7490    1.2350    0.3250 H   0  0  0  0  0  0  0  0  0  0  0  0
    0.6970    0.1190    1.4700 H   0  0  0  0  0  0  0  0  0  0  0  0
   -0.2870   -0.7700   -1.2920 H   0  0  0  0  0  0  0  0  0  0  0  0
   -1.3540   -1.1610    1.5210 H   0  0  0  0  0  0  0  0  0  0  0  0
    2.7970   -0.9920    1.1560 H   0  0  0  0  0  0  0  0  0  0  0  0
   -3.4540   -0.3550    2.0300 H   0  0  0  0  0  0  0  0  0  0  0  0
    5.0590    0.1690    1.4360 H   0  0  0  0  0  0  0  0  0  0  0  0
  1  4  1  0  0  0  0
  1  7  1  0  0  0  0
  1  8  1  0  0  0  0
  1 45  1  0  0  0  0
  2  3  1  0  0  0  0
  2  6  1  0  0  0  0
  2 14  1  0  0  0  0
  2 41  1  0  0  0  0
  3  5  1  0  0  0  0
  3 11  1  0  0  0  0
  3 52  1  0  0  0  0
  4  5  1  0  0  0  0
  4 17  1  0  0  0  0
  4 54  1  0  0  0  0
  5 20  1  0  0  0  0
  5 53  1  0  0  0  0
  6 27  1  0  0  0  0
  6 33  1  0  0  0  0
  6 55  1  0  0  0  0
  7 24  1  0  0  0  0
  7 30  1  0  0  0  0
  7 56  1  0  0  0  0
  8  9  1  0  0  0  0
  8 10  1  0  0  0  0
  8 11  1  0  0  0  0
 11 12  1  0  0  0  0
 11 13  1  0  0  0  0
 14 15  1  0  0  0  0
 14 16  1  0  0  0  0
 14 37  1  0  0  0  0
 17 18  1  0  0  0  0
 17 19  1  0  0  0  0
 17 30  1  0  0  0  0
 20 21  1  0  0  0  0
 20 22  1  0  0  0  0
 20 27  1  0  0  0  0
 23 24  1  0  0  0  0
 23 36  2  0  0  0  0
 23 49  1  0  0  0  0
 24 25  1  0  0  0  0
 24 26  1  0  0  0  0
 27 28  1  0  0  0  0
 27 29  1  0  0  0  0
 30 31  1  0  0  0  0
 30 32  1  0  0  0  0
 33 34  1  0  0  0  0
 33 35  1  0  0  0  0
 33 40  1  0  0  0  0
 37 38  1  0  0  0  0
 37 39  1  0  0  0  0
 37 40  1  0  0  0  0
 40 50  1  0  0  0  0
 40 57  1  0  0  0  0
 41 42  1  0  0  0  0
 41 43  1  0  0  0  0
 41 44  1  0  0  0  0
 45 46  1  0  0  0  0
 45 47  1  0  0  0  0
 45 48  1  0  0  0  0
 50 51  1  0  0  0  0
M  CHG  1  49  -1
M  END
>  <IDNUMBER>
AO-774/41465516

>  <NAME>
3,21-Dihydroxypregnan-20-one, Derivative of

>  <ADD_INFO>
http://www.specs.net/enter.php?specsid=AO-774/41465516

>  <H_ACCEPTORS>
3

>  <H_DONORS>
2

>  <ROTATABLE_BONDS>
2

>  <LOGP>
4.79

>  <LOGS>
-4.8200002

>  <TPSA>
57.529999

>  <PRICE>
N06

$$$$
AO-774/41465517
  MOE2011           3D

 62 65  0  0  1  0  0  0  0  0999 V2000
   -3.0370    0.3500   -0.2420 C   0  0  1  0  0  0  0  0  0  0  0  0
    1.4280    0.4010    0.0840 C   0  0  2  0  0  0  0  0  0  0  0  0
   -0.1080    0.3530    0.4290 C   0  0  2  0  0  0  0  0  0  0  0  0
   -2.2760   -0.9040    0.2410 C   0  0  2  0  0  0  0  0  0  0  0  0
   -0.8030   -0.9080   -0.1800 C   0  0  2  0  0  0  0  0  0  0  0  0
    2.0620   -0.9380    0.5840 C   0  0  2  0  0  0  0  0  0  0  0  0
   -4.4520    0.0040    0.2920 C   0  0  1  0  0  0  0  0  0  0  0  0
   -2.3850    1.5760    0.4150 C   0  0  0  0  0  0  0  0  0  0  0  0
   -2.8770    2.4990    0.0860 H   0  0  0  0  0  0  0  0  0  0  0  0
   -2.5110    1.5310    1.5040 H   0  0  0  0  0  0  0  0  0  0  0  0
   -0.8800    1.6580    0.1010 C   0  0  0  0  0  0  0  0  0  0  0  0
   -0.4680    2.4900    0.6820 H   0  0  0  0  0  0  0  0  0  0  0  0
   -0.7510    1.9240   -0.9530 H   0  0  0  0  0  0  0  0  0  0  0  0
    2.1210    1.5690    0.8460 C   0  0  0  0  0  0  0  0  0  0  0  0
    1.7580    2.5370    0.4820 H   0  0  0  0  0  0  0  0  0  0  0  0
    1.8550    1.5170    1.9100 H   0  0  0  0  0  0  0  0  0  0  0  0
   -3.1730   -2.0580   -0.1940 C   0  0  0  0  0  0  0  0  0  0  0  0
   -2.9850   -2.3440   -1.2350 H   0  0  0  0  0  0  0  0  0  0  0  0
   -3.0250   -2.9480    0.4260 H   0  0  0  0  0  0  0  0  0  0  0  0
   -0.0980   -2.1990    0.2580 C   0  0  0  0  0  0  0  0  0  0  0  0
   -0.2460   -2.3560    1.3340 H   0  0  0  0  0  0  0  0  0  0  0  0
   -0.5420   -3.0630   -0.2500 H   0  0  0  0  0  0  0  0  0  0  0  0
   -6.9650    0.6790    0.4290 C   0  0  0  0  0  0  0  0  0  0  0  0
    6.2780    0.3200   -0.2220 C   0  0  0  0  0  0  0  0  0  0  0  0
   -5.5990    0.8590   -0.2470 C   0  0  0  0  0  0  0  0  0  0  0  0
   -5.7410    0.6730   -1.3180 H   0  0  0  0  0  0  0  0  0  0  0  0
   -5.3400    1.9190   -0.1360 H   0  0  0  0  0  0  0  0  0  0  0  0
    3.5860   -0.9810    0.4100 C   0  0  0  0  0  0  0  0  0  0  0  0
    3.8510   -1.0210   -0.6510 H   0  0  0  0  0  0  0  0  0  0  0  0
    3.9890   -1.9090    0.8370 H   0  0  0  0  0  0  0  0  0  0  0  0
    1.3990   -2.1710   -0.0400 C   0  0  0  0  0  0  0  0  0  0  0  0
    1.5660   -2.1970   -1.1230 H   0  0  0  0  0  0  0  0  0  0  0  0
    1.8540   -3.0830    0.3650 H   0  0  0  0  0  0  0  0  0  0  0  0
   -4.6010   -1.5030   -0.0400 C   0  0  0  0  0  0  0  0  0  0  0  0
   -5.1340   -2.0220    0.7640 H   0  0  0  0  0  0  0  0  0  0  0  0
   -5.1660   -1.6670   -0.9650 H   0  0  0  0  0  0  0  0  0  0  0  0
    5.6870    0.1890    0.9960 O   0  0  0  0  0  0  0  0  0  0  0  0
    4.2470    0.2090    1.1130 C   0  0  1  0  0  0  0  0  0  0  0  0
   -7.9120    1.2810   -0.1570 O   0  0  0  0  0  0  0  0  0  0  0  0
    5.7130    0.4640   -1.2960 O   0  0  0  0  0  0  0  0  0  0  0  0
    3.6470    1.5610    0.7270 C   0  0  0  0  0  0  0  0  0  0  0  0
    4.0700    2.3410    1.3720 H   0  0  0  0  0  0  0  0  0  0  0  0
    3.9380    1.8490   -0.2880 H   0  0  0  0  0  0  0  0  0  0  0  0
    1.6460    0.6130   -1.4360 C   0  0  0  0  0  0  0  0  0  0  0  0
    2.7020    0.5660   -1.7160 H   0  0  0  0  0  0  0  0  0  0  0  0
    1.2870    1.5970   -1.7550 H   0  0  0  0  0  0  0  0  0  0  0  0
    1.1300   -0.1340   -2.0440 H   0  0  0  0  0  0  0  0  0  0  0  0
   -3.0470    0.5290   -1.7810 C   0  0  0  0  0  0  0  0  0  0  0  0
   -3.5670    1.4530   -2.0600 H   0  0  0  0  0  0  0  0  0  0  0  0
   -3.5530   -0.2940   -2.2960 H   0  0  0  0  0  0  0  0  0  0  0  0
   -2.0430    0.5980   -2.2070 H   0  0  0  0  0  0  0  0  0  0  0  0
   -6.9930   -0.0260    1.4740 O   0  5  0  0  0  0  0  0  0  0  0  0
    7.7670    0.2540   -0.0620 C   0  0  0  0  0  0  0  0  0  0  0  0
    8.1050    1.0530    0.6030 H   0  0  0  0  0  0  0  0  0  0  0  0
    8.2430    0.3890   -1.0380 H   0  0  0  0  0  0  0  0  0  0  0  0
    8.0530   -0.7240    0.3340 H   0  0  0  0  0  0  0  0  0  0  0  0
   -0.1750    0.2440    1.5230 H   0  0  0  0  0  0  0  0  0  0  0  0
   -0.7490   -0.8680   -1.2730 H   0  0  0  0  0  0  0  0  0  0  0  0
   -2.2870   -0.9120    1.3440 H   0  0  0  0  0  0  0  0  0  0  0  0
    1.8770   -1.0030    1.6680 H   0  0  0  0  0  0  0  0  0  0  0  0
   -4.4370    0.1010    1.3870 H   0  0  0  0  0  0  0  0  0  0  0  0
    4.0660    0.0800    2.1890 H   0  0  0  0  0  0  0  0  0  0  0  0
  1  4  1  0  0  0  0
  1  7  1  0  0  0  0
  1  8  1  0  0  0  0
  1 48  1  0  0  0  0
  2  3  1  0  0  0  0
  2  6  1  0  0  0  0
  2 14  1  0  0  0  0
  2 44  1  0  0  0  0
  3  5  1  0  0  0  0
  3 11  1  0  0  0  0
  3 57  1  0  0  0  0
  4  5  1  0  0  0  0
  4 17  1  0  0  0  0
  4 59  1  0  0  0  0
  5 20  1  0  0  0  0
  5 58  1  0  0  0  0
  6 28  1  0  0  0  0
  6 31  1  0  0  0  0
  6 60  1  0  0  0  0
  7 25  1  0  0  0  0
  7 34  1  0  0  0  0
  7 61  1  0  0  0  0
  8  9  1  0  0  0  0
  8 10  1  0  0  0  0
  8 11  1  0  0  0  0
 11 12  1  0  0  0  0
 11 13  1  0  0  0  0
 14 15  1  0  0  0  0
 14 16  1  0  0  0  0
 14 41  1  0  0  0  0
 17 18  1  0  0  0  0
 17 19  1  0  0  0  0
 17 34  1  0  0  0  0
 20 21  1  0  0  0  0
 20 22  1  0  0  0  0
 20 31  1  0  0  0  0
 23 25  1  0  0  0  0
 23 39  2  0  0  0  0
 23 52  1  0  0  0  0
 24 37  1  0  0  0  0
 24 40  2  0  0  0  0
 24 53  1  0  0  0  0
 25 26  1  0  0  0  0
 25 27  1  0  0  0  0
 28 29  1  0  0  0  0
 28 30  1  0  0  0  0
 28 38  1  0  0  0  0
 31 32  1  0  0  0  0
 31 33  1  0  0  0  0
 34 35  1  0  0  0  0
 34 36  1  0  0  0  0
 37 38  1  0  0  0  0
 38 41  1  0  0  0  0
 38 62  1  0  0  0  0
 41 42  1  0  0  0  0
 41 43  1  0  0  0  0
 44 45  1  0  0  0  0
 44 46  1  0  0  0  0
 44 47  1  0  0  0  0
 48 49  1  0  0  0  0
 48 50  1  0  0  0  0
 48 51  1  0  0  0  0
 53 54  1  0  0  0  0
 53 55  1  0  0  0  0
 53 56  1  0  0  0  0
M  CHG  1  52  -1
M  END
>  <IDNUMBER>
AO-774/41465517

>  <NAME>
3,21-Dihydroxypregnan-20-one, Derivative of

>  <ADD_INFO>
http://www.specs.net/enter.php?specsid=AO-774/41465517

>  <H_ACCEPTORS>
4

>  <H_DONORS>
1

>  <ROTATABLE_BONDS>
4

>  <LOGP>
5.79

>  <LOGS>
-6.5

>  <TPSA>
63.599998

>  <PRICE>
N06

$$$$
AO-774/41465518
  MOE2011           3D

 66 69  0  0  1  0  0  0  0  0999 V2000
   -2.6030   -0.0390    0.3930 C   0  0  1  0  0  0  0  0  0  0  0  0
    1.8020    0.5680   -0.1420 C   0  0  2  0  0  0  0  0  0  0  0  0
    0.3940    0.2100    0.4640 C   0  0  2  0  0  0  0  0  0  0  0  0
   -1.6470   -1.2550    0.3380 C   0  0  2  0  0  0  0  0  0  0  0  0
   -0.3070   -0.9380   -0.3340 C   0  0  2  0  0  0  0  0  0  0  0  0
    2.6480   -0.7460   -0.1650 C   0  0  2  0  0  0  0  0  0  0  0  0
   -3.8210   -0.7250    1.0660 C   0  0  1  0  0  0  0  0  0  0  0  0
   -1.9240    1.0480    1.2400 C   0  0  0  0  0  0  0  0  0  0  0  0
   -2.5550    1.9430    1.2970 H   0  0  0  0  0  0  0  0  0  0  0  0
   -1.7960    0.6960    2.2720 H   0  0  0  0  0  0  0  0  0  0  0  0
   -0.5420    1.4290    0.6780 C   0  0  0  0  0  0  0  0  0  0  0  0
   -0.0820    2.1310    1.3810 H   0  0  0  0  0  0  0  0  0  0  0  0
   -0.6780    1.9770   -0.2590 H   0  0  0  0  0  0  0  0  0  0  0  0
    2.5460    1.5910    0.7610 C   0  0  0  0  0  0  0  0  0  0  0  0
    2.0360    2.5610    0.7470 H   0  0  0  0  0  0  0  0  0  0  0  0
    2.5250    1.2430    1.8020 H   0  0  0  0  0  0  0  0  0  0  0  0
   -2.5190   -2.3700   -0.2330 C   0  0  0  0  0  0  0  0  0  0  0  0
   -2.5440   -2.3380   -1.3280 H   0  0  0  0  0  0  0  0  0  0  0  0
   -2.1600   -3.3620    0.0620 H   0  0  0  0  0  0  0  0  0  0  0  0
    0.5890   -2.1820   -0.4200 C   0  0  0  0  0  0  0  0  0  0  0  0
    0.6960   -2.6320    0.5750 H   0  0  0  0  0  0  0  0  0  0  0  0
    0.1210   -2.9400   -1.0590 H   0  0  0  0  0  0  0  0  0  0  0  0
   -5.8880    0.4250   -0.0230 C   0  0  0  0  0  0  0  0  0  0  0  0
    7.2350    0.1660   -0.0020 C   0  0  0  0  0  0  0  0  0  0  0  0
   -5.1280    0.0530    1.2300 C   0  0  0  0  0  0  0  0  0  0  0  0
   -4.9200    0.9680    1.8010 H   0  0  0  0  0  0  0  0  0  0  0  0
   -5.8240   -0.5280    1.8480 H   0  0  0  0  0  0  0  0  0  0  0  0
    4.0940   -0.5160   -0.6220 C   0  0  0  0  0  0  0  0  0  0  0  0
    4.1370   -0.1990   -1.6710 H   0  0  0  0  0  0  0  0  0  0  0  0
    4.6500   -1.4610   -0.5910 H   0  0  0  0  0  0  0  0  0  0  0  0
    1.9770   -1.8620   -0.9730 C   0  0  0  0  0  0  0  0  0  0  0  0
    1.9050   -1.5880   -2.0310 H   0  0  0  0  0  0  0  0  0  0  0  0
    2.5890   -2.7720   -0.9300 H   0  0  0  0  0  0  0  0  0  0  0  0
   -3.9200   -2.0900    0.3450 C   0  0  0  0  0  0  0  0  0  0  0  0
   -4.2140   -2.8730    1.0540 H   0  0  0  0  0  0  0  0  0  0  0  0
   -4.6520   -2.1000   -0.4660 H   0  0  0  0  0  0  0  0  0  0  0  0
    6.0890    0.8260   -0.2940 O   0  0  0  0  0  0  0  0  0  0  0  0
    4.7960    0.5100    0.2720 C   0  0  1  0  0  0  0  0  0  0  0  0
   -6.3230   -0.3740   -0.8410 O   0  0  0  0  0  0  0  0  0  0  0  0
    8.2800    0.4170   -0.5970 O   0  0  0  0  0  0  0  0  0  0  0  0
    4.0040    1.8150    0.3550 C   0  0  0  0  0  0  0  0  0  0  0  0
    4.4870    2.4840    1.0790 H   0  0  0  0  0  0  0  0  0  0  0  0
    4.0590    2.3500   -0.6010 H   0  0  0  0  0  0  0  0  0  0  0  0
    1.6510    1.1860   -1.5560 C   0  0  0  0  0  0  0  0  0  0  0  0
    2.6150    1.3690   -2.0370 H   0  0  0  0  0  0  0  0  0  0  0  0
    1.1400    2.1530   -1.5130 H   0  0  0  0  0  0  0  0  0  0  0  0
    1.0830    0.5480   -2.2380 H   0  0  0  0  0  0  0  0  0  0  0  0
   -2.9530    0.5350   -1.0000 C   0  0  0  0  0  0  0  0  0  0  0  0
   -3.5400    1.4540   -0.9050 H   0  0  0  0  0  0  0  0  0  0  0  0
   -3.5280   -0.1670   -1.6110 H   0  0  0  0  0  0  0  0  0  0  0  0
   -2.0690    0.8040   -1.5830 H   0  0  0  0  0  0  0  0  0  0  0  0
   -6.0400    1.7780   -0.0920 O   0  0  0  0  0  0  0  0  0  0  0  0
    7.1850   -0.8580    1.0920 C   0  0  0  0  0  0  0  0  0  0  0  0
    6.9470   -0.3820    2.0460 H   0  0  0  0  0  0  0  0  0  0  0  0
    8.1720   -1.3210    1.1880 H   0  0  0  0  0  0  0  0  0  0  0  0
    6.4750   -1.6520    0.8520 H   0  0  0  0  0  0  0  0  0  0  0  0
   -6.7460    2.2340   -1.2480 C   0  0  0  0  0  0  0  0  0  0  0  0
   -6.7950    3.3260   -1.2060 H   0  0  0  0  0  0  0  0  0  0  0  0
   -7.7670    1.8400   -1.2520 H   0  0  0  0  0  0  0  0  0  0  0  0
   -6.2130    1.9450   -2.1600 H   0  0  0  0  0  0  0  0  0  0  0  0
   -0.4970   -0.6120   -1.3610 H   0  0  0  0  0  0  0  0  0  0  0  0
    0.5840   -0.1880    1.4740 H   0  0  0  0  0  0  0  0  0  0  0  0
   -1.4100   -1.5570    1.3720 H   0  0  0  0  0  0  0  0  0  0  0  0
    2.7120   -1.1120    0.8720 H   0  0  0  0  0  0  0  0  0  0  0  0
   -3.5170   -0.9590    2.1000 H   0  0  0  0  0  0  0  0  0  0  0  0
    4.9010    0.1160    1.2890 H   0  0  0  0  0  0  0  0  0  0  0  0
  1  4  1  0  0  0  0
  1  7  1  0  0  0  0
  1  8  1  0  0  0  0
  1 48  1  0  0  0  0
  2  3  1  0  0  0  0
  2  6  1  0  0  0  0
  2 14  1  0  0  0  0
  2 44  1  0  0  0  0
  3  5  1  0  0  0  0
  3 11  1  0  0  0  0
  3 62  1  0  0  0  0
  4  5  1  0  0  0  0
  4 17  1  0  0  0  0
  4 63  1  0  0  0  0
  5 20  1  0  0  0  0
  5 61  1  0  0  0  0
  6 28  1  0  0  0  0
  6 31  1  0  0  0  0
  6 64  1  0  0  0  0
  7 25  1  0  0  0  0
  7 34  1  0  0  0  0
  7 65  1  0  0  0  0
  8  9  1  0  0  0  0
  8 10  1  0  0  0  0
  8 11  1  0  0  0  0
 11 12  1  0  0  0  0
 11 13  1  0  0  0  0
 14 15  1  0  0  0  0
 14 16  1  0  0  0  0
 14 41  1  0  0  0  0
 17 18  1  0  0  0  0
 17 19  1  0  0  0  0
 17 34  1  0  0  0  0
 20 21  1  0  0  0  0
 20 22  1  0  0  0  0
 20 31  1  0  0  0  0
 23 25  1  0  0  0  0
 23 39  2  0  0  0  0
 23 52  1  0  0  0  0
 24 37  1  0  0  0  0
 24 40  2  0  0  0  0
 24 53  1  0  0  0  0
 25 26  1  0  0  0  0
 25 27  1  0  0  0  0
 28 29  1  0  0  0  0
 28 30  1  0  0  0  0
 28 38  1  0  0  0  0
 31 32  1  0  0  0  0
 31 33  1  0  0  0  0
 34 35  1  0  0  0  0
 34 36  1  0  0  0  0
 37 38  1  0  0  0  0
 38 41  1  0  0  0  0
 38 66  1  0  0  0  0
 41 42  1  0  0  0  0
 41 43  1  0  0  0  0
 44 45  1  0  0  0  0
 44 46  1  0  0  0  0
 44 47  1  0  0  0  0
 48 49  1  0  0  0  0
 48 50  1  0  0  0  0
 48 51  1  0  0  0  0
 52 57  1  0  0  0  0
 53 54  1  0  0  0  0
 53 55  1  0  0  0  0
 53 56  1  0  0  0  0
 57 58  1  0  0  0  0
 57 59  1  0  0  0  0
 57 60  1  0  0  0  0
M  END
>  <IDNUMBER>
AO-774/41465518

>  <NAME>
methyl 3-(acetyloxy)pregnan-21-oate

>  <ADD_INFO>
http://www.specs.net/enter.php?specsid=AO-774/41465518

>  <H_ACCEPTORS>
4

>  <H_DONORS>
0

>  <ROTATABLE_BONDS>
5

>  <LOGP>
6.0799999

>  <LOGS>
-7.2399998

>  <TPSA>
52.599998

>  <PRICE>
N06

$$$$
AO-774/41465519
  MOE2011           3D

 71 74  0  0  1  0  0  0  0  0999 V2000
    1.8660    0.3860   -0.1660 C   0  0  1  0  0  0  0  0  0  0  0  0
   -2.5620   -0.2370   -0.3770 C   0  0  2  0  0  0  0  0  0  0  0  0
   -1.0960   -0.0030    0.1460 C   0  0  2  0  0  0  0  0  0  0  0  0
    0.8990    1.5230    0.2290 C   0  0  2  0  0  0  0  0  0  0  0  0
   -0.5030    1.3490   -0.3670 C   0  0  2  0  0  0  0  0  0  0  0  0
   -3.4160    0.9960    0.0620 C   0  0  2  0  0  0  0  0  0  0  0  0
    3.1530    0.8950    0.5370 C   0  0  1  0  0  0  0  0  0  0  0  0
    1.3030   -0.9270    0.3970 C   0  0  0  0  0  0  0  0  0  0  0  0
    1.9460   -1.7720    0.1250 H   0  0  0  0  0  0  0  0  0  0  0  0
    1.2900   -0.8900    1.4940 H   0  0  0  0  0  0  0  0  0  0  0  0
   -0.1300   -1.1920   -0.0990 C   0  0  0  0  0  0  0  0  0  0  0  0
   -0.4990   -2.0840    0.4180 H   0  0  0  0  0  0  0  0  0  0  0  0
   -0.0970   -1.4460   -1.1630 H   0  0  0  0  0  0  0  0  0  0  0  0
   -3.1850   -1.5010    0.2810 C   0  0  0  0  0  0  0  0  0  0  0  0
   -2.6720   -2.4070   -0.0610 H   0  0  0  0  0  0  0  0  0  0  0  0
   -3.0430   -1.4540    1.3690 H   0  0  0  0  0  0  0  0  0  0  0  0
    1.6870    2.7890   -0.0880 C   0  0  0  0  0  0  0  0  0  0  0  0
    1.5920    3.0680   -1.1440 H   0  0  0  0  0  0  0  0  0  0  0  0
    1.3500    3.6420    0.5100 H   0  0  0  0  0  0  0  0  0  0  0  0
   -1.4160    2.5310   -0.0110 C   0  0  0  0  0  0  0  0  0  0  0  0
   -1.4120    2.6880    1.0760 H   0  0  0  0  0  0  0  0  0  0  0  0
   -1.0330    3.4530   -0.4630 H   0  0  0  0  0  0  0  0  0  0  0  0
   -7.8490   -1.1260    0.6040 C   0  0  0  0  0  0  0  0  0  0  0  0
    8.1000   -1.8630   -0.1520 C   0  0  0  0  0  0  0  0  0  0  0  0
    4.4550    0.2030    0.1260 C   0  0  0  0  0  0  0  0  0  0  0  0
    4.7240    0.4640   -0.9030 H   0  0  0  0  0  0  0  0  0  0  0  0
    4.3250   -0.8830    0.1860 H   0  0  0  0  0  0  0  0  0  0  0  0
   -4.9040    0.8390   -0.2720 C   0  0  0  0  0  0  0  0  0  0  0  0
   -5.0730    0.8270   -1.3560 H   0  0  0  0  0  0  0  0  0  0  0  0
   -5.4650    1.7100    0.0920 H   0  0  0  0  0  0  0  0  0  0  0  0
   -2.8550    2.3170   -0.4760 C   0  0  0  0  0  0  0  0  0  0  0  0
   -2.9040    2.3450   -1.5700 H   0  0  0  0  0  0  0  0  0  0  0  0
   -3.4670    3.1540   -0.1180 H   0  0  0  0  0  0  0  0  0  0  0  0
    3.1440    2.4170    0.2410 C   0  0  0  0  0  0  0  0  0  0  0  0
    3.5000    2.9780    1.1120 H   0  0  0  0  0  0  0  0  0  0  0  0
    3.7940    2.6770   -0.6030 H   0  0  0  0  0  0  0  0  0  0  0  0
   -6.8410   -0.5680   -0.1070 O   0  0  0  0  0  0  0  0  0  0  0  0
   -5.4840   -0.4210    0.3750 C   0  0  1  0  0  0  0  0  0  0  0  0
    5.6380    0.5630    1.0140 C   0  0  0  0  0  0  0  0  0  0  0  0
   -8.9540   -1.3060    0.1000 O   0  0  0  0  0  0  0  0  0  0  0  0
    9.1370   -1.2470   -0.3520 O   0  0  0  0  0  0  0  0  0  0  0  0
    6.9350   -1.3230    0.3000 O   0  0  0  0  0  0  0  0  0  0  0  0
    5.5210    1.2390    2.0370 O   0  0  0  0  0  0  0  0  0  0  0  0
   -4.6800   -1.6640   -0.0050 C   0  0  0  0  0  0  0  0  0  0  0  0
   -5.0590   -2.5340    0.5440 H   0  0  0  0  0  0  0  0  0  0  0  0
   -4.8440   -1.9060   -1.0620 H   0  0  0  0  0  0  0  0  0  0  0  0
    7.0020    0.0780    0.5560 C   0  0  0  0  0  0  0  0  0  0  0  0
    7.7300    0.2760    1.3510 H   0  0  0  0  0  0  0  0  0  0  0  0
    7.2740    0.6280   -0.3520 H   0  0  0  0  0  0  0  0  0  0  0  0
   -2.5720   -0.4340   -1.9150 C   0  0  0  0  0  0  0  0  0  0  0  0
   -3.5850   -0.5080   -2.3200 H   0  0  0  0  0  0  0  0  0  0  0  0
   -2.0580   -1.3580   -2.2000 H   0  0  0  0  0  0  0  0  0  0  0  0
   -2.0860    0.3860   -2.4490 H   0  0  0  0  0  0  0  0  0  0  0  0
    2.0860    0.2440   -1.6940 C   0  0  0  0  0  0  0  0  0  0  0  0
    2.7500   -0.6000   -1.9120 H   0  0  0  0  0  0  0  0  0  0  0  0
    2.5400    1.1360   -2.1370 H   0  0  0  0  0  0  0  0  0  0  0  0
    1.1570    0.0580   -2.2400 H   0  0  0  0  0  0  0  0  0  0  0  0
   -7.5720   -1.4890    2.0320 C   0  0  0  0  0  0  0  0  0  0  0  0
   -7.3630   -0.5910    2.6170 H   0  0  0  0  0  0  0  0  0  0  0  0
   -6.7570   -2.2120    2.1020 H   0  0  0  0  0  0  0  0  0  0  0  0
   -8.4640   -1.9620    2.4560 H   0  0  0  0  0  0  0  0  0  0  0  0
    7.9280   -3.3330   -0.3820 C   0  0  0  0  0  0  0  0  0  0  0  0
    7.1930   -3.5000   -1.1740 H   0  0  0  0  0  0  0  0  0  0  0  0
    7.6140   -3.8200    0.5440 H   0  0  0  0  0  0  0  0  0  0  0  0
    8.8840   -3.7650   -0.6930 H   0  0  0  0  0  0  0  0  0  0  0  0
   -0.4200    1.3250   -1.4580 H   0  0  0  0  0  0  0  0  0  0  0  0
   -1.1700    0.0870    1.2420 H   0  0  0  0  0  0  0  0  0  0  0  0
    0.7770    1.5090    1.3250 H   0  0  0  0  0  0  0  0  0  0  0  0
   -3.3570    1.0600    1.1600 H   0  0  0  0  0  0  0  0  0  0  0  0
    3.0240    0.7700    1.6220 H   0  0  0  0  0  0  0  0  0  0  0  0
   -5.4690   -0.2800    1.4610 H   0  0  0  0  0  0  0  0  0  0  0  0
  1  4  1  0  0  0  0
  1  7  1  0  0  0  0
  1  8  1  0  0  0  0
  1 54  1  0  0  0  0
  2  3  1  0  0  0  0
  2  6  1  0  0  0  0
  2 14  1  0  0  0  0
  2 50  1  0  0  0  0
  3  5  1  0  0  0  0
  3 11  1  0  0  0  0
  3 67  1  0  0  0  0
  4  5  1  0  0  0  0
  4 17  1  0  0  0  0
  4 68  1  0  0  0  0
  5 20  1  0  0  0  0
  5 66  1  0  0  0  0
  6 28  1  0  0  0  0
  6 31  1  0  0  0  0
  6 69  1  0  0  0  0
  7 25  1  0  0  0  0
  7 34  1  0  0  0  0
  7 70  1  0  0  0  0
  8  9  1  0  0  0  0
  8 10  1  0  0  0  0
  8 11  1  0  0  0  0
 11 12  1  0  0  0  0
 11 13  1  0  0  0  0
 14 15  1  0  0  0  0
 14 16  1  0  0  0  0
 14 44  1  0  0  0  0
 17 18  1  0  0  0  0
 17 19  1  0  0  0  0
 17 34  1  0  0  0  0
 20 21  1  0  0  0  0
 20 22  1  0  0  0  0
 20 31  1  0  0  0  0
 23 37  1  0  0  0  0
 23 40  2  0  0  0  0
 23 58  1  0  0  0  0
 24 41  2  0  0  0  0
 24 42  1  0  0  0  0
 24 62  1  0  0  0  0
 25 26  1  0  0  0  0
 25 27  1  0  0  0  0
 25 39  1  0  0  0  0
 28 29  1  0  0  0  0
 28 30  1  0  0  0  0
 28 38  1  0  0  0  0
 31 32  1  0  0  0  0
 31 33  1  0  0  0  0
 34 35  1  0  0  0  0
 34 36  1  0  0  0  0
 37 38  1  0  0  0  0
 38 44  1  0  0  0  0
 38 71  1  0  0  0  0
 39 43  2  0  0  0  0
 39 47  1  0  0  0  0
 42 47  1  0  0  0  0
 44 45  1  0  0  0  0
 44 46  1  0  0  0  0
 47 48  1  0  0  0  0
 47 49  1  0  0  0  0
 50 51  1  0  0  0  0
 50 52  1  0  0  0  0
 50 53  1  0  0  0  0
 54 55  1  0  0  0  0
 54 56  1  0  0  0  0
 54 57  1  0  0  0  0
 58 59  1  0  0  0  0
 58 60  1  0  0  0  0
 58 61  1  0  0  0  0
 62 63  1  0  0  0  0
 62 64  1  0  0  0  0
 62 65  1  0  0  0  0
M  END
>  <IDNUMBER>
AO-774/41465519

>  <NAME>
3,21-Dihydroxypregnan-20-one, Derivative of

>  <ADD_INFO>
http://www.specs.net/enter.php?specsid=AO-774/41465519

>  <H_ACCEPTORS>
5

>  <H_DONORS>
0

>  <ROTATABLE_BONDS>
7

>  <LOGP>
5.5100002

>  <LOGS>
-7.0599999

>  <TPSA>
69.669998

>  <PRICE>
N06

$$$$
AO-774/41465521
  MOE2011           3D

 78 81  0  0  1  0  0  0  0  0999 V2000
    1.4170   -0.3570   -0.5440 C   0  0  1  0  0  0  0  0  0  0  0  0
   -3.0170   -0.3600    0.0990 C   0  0  2  0  0  0  0  0  0  0  0  0
   -1.4630   -0.2230    0.3090 C   0  0  2  0  0  0  0  0  0  0  0  0
    0.6610    0.9690   -0.3200 C   0  0  2  0  0  0  0  0  0  0  0  0
   -0.8380    0.8640   -0.6250 C   0  0  2  0  0  0  0  0  0  0  0  0
   -3.6450    1.0550    0.3150 C   0  0  2  0  0  0  0  0  0  0  0  0
    2.8620    0.1080   -0.1980 C   0  0  2  0  0  0  0  0  0  0  0  0
    0.8340   -1.3990    0.4230 C   0  0  0  0  0  0  0  0  0  0  0  0
    1.3240   -2.3700    0.2880 H   0  0  0  0  0  0  0  0  0  0  0  0
    1.0270   -1.0980    1.4610 H   0  0  0  0  0  0  0  0  0  0  0  0
   -0.6850   -1.5630    0.2360 C   0  0  0  0  0  0  0  0  0  0  0  0
   -1.0410   -2.2430    1.0180 H   0  0  0  0  0  0  0  0  0  0  0  0
   -0.8750   -2.0640   -0.7170 H   0  0  0  0  0  0  0  0  0  0  0  0
   -3.6290   -1.3190    1.1610 C   0  0  0  0  0  0  0  0  0  0  0  0
   -3.2700   -2.3440    1.0100 H   0  0  0  0  0  0  0  0  0  0  0  0
   -3.2920   -1.0160    2.1620 H   0  0  0  0  0  0  0  0  0  0  0  0
    1.5010    1.9860   -1.0820 C   0  0  0  0  0  0  0  0  0  0  0  0
    1.2430    2.0060   -2.1470 H   0  0  0  0  0  0  0  0  0  0  0  0
    1.3710    3.0000   -0.6920 H   0  0  0  0  0  0  0  0  0  0  0  0
   -1.5430    2.2170   -0.4540 C   0  0  0  0  0  0  0  0  0  0  0  0
   -1.3250    2.6250    0.5420 H   0  0  0  0  0  0  0  0  0  0  0  0
   -1.1550    2.9390   -1.1810 H   0  0  0  0  0  0  0  0  0  0  0  0
   -7.8820   -0.3740    0.1410 C   0  0  0  0  0  0  0  0  0  0  0  0
    6.1690   -3.1200    0.3080 C   0  0  0  0  0  0  0  0  0  0  0  0
    6.1310    2.7260    1.0230 C   0  0  0  0  0  0  0  0  0  0  0  0
   -5.1790    1.0480    0.2490 C   0  0  0  0  0  0  0  0  0  0  0  0
   -5.5190    0.8360   -0.7690 H   0  0  0  0  0  0  0  0  0  0  0  0
   -5.5710    2.0480    0.4760 H   0  0  0  0  0  0  0  0  0  0  0  0
   -3.0560    2.1090   -0.6280 C   0  0  0  0  0  0  0  0  0  0  0  0
   -3.2970    1.8770   -1.6720 H   0  0  0  0  0  0  0  0  0  0  0  0
   -3.5030    3.0880   -0.4170 H   0  0  0  0  0  0  0  0  0  0  0  0
    2.9490    1.4950   -0.8870 C   0  0  0  0  0  0  0  0  0  0  0  0
    3.4960    2.2060   -0.2630 H   0  0  0  0  0  0  0  0  0  0  0  0
    3.4600    1.4470   -1.8550 H   0  0  0  0  0  0  0  0  0  0  0  0
    3.9690   -0.8750   -0.6030 C   0  0  0  0  0  0  0  0  0  0  0  0
    4.2090   -0.7720   -1.6700 H   0  0  0  0  0  0  0  0  0  0  0  0
    3.5870   -1.8990   -0.5020 H   0  0  0  0  0  0  0  0  0  0  0  0
   -7.2070    0.0400    1.2460 O   0  0  0  0  0  0  0  0  0  0  0  0
    6.1250   -1.8830   -0.2440 O   0  0  0  0  0  0  0  0  0  0  0  0
   -5.7630    0.0530    1.2570 C   0  0  1  0  0  0  0  0  0  0  0  0
   -7.3920   -0.7670   -0.9080 O   0  0  0  0  0  0  0  0  0  0  0  0
    6.8770   -4.0000   -0.1750 O   0  0  0  0  0  0  0  0  0  0  0  0
    5.7130    3.5570    1.8240 O   0  0  0  0  0  0  0  0  0  0  0  0
    5.5770    1.4910    0.9440 O   0  0  0  0  0  0  0  0  0  0  0  0
    5.2670   -0.8030    0.2220 C   0  0  3  0  0  0  0  0  0  0  0  0
   -5.1600   -1.3490    1.1550 C   0  0  0  0  0  0  0  0  0  0  0  0
   -5.5200   -1.9580    1.9940 H   0  0  0  0  0  0  0  0  0  0  0  0
   -5.5140   -1.8680    0.2590 H   0  0  0  0  0  0  0  0  0  0  0  0
   -3.3340   -0.9260   -1.3090 C   0  0  0  0  0  0  0  0  0  0  0  0
   -4.4080   -0.9480   -1.5170 H   0  0  0  0  0  0  0  0  0  0  0  0
   -2.9800   -1.9570   -1.4110 H   0  0  0  0  0  0  0  0  0  0  0  0
   -2.8750   -0.3430   -2.1110 H   0  0  0  0  0  0  0  0  0  0  0  0
    1.3340   -0.8890   -1.9990 C   0  0  0  0  0  0  0  0  0  0  0  0
    1.8450   -1.8540   -2.0910 H   0  0  0  0  0  0  0  0  0  0  0  0
    1.7980   -0.2100   -2.7200 H   0  0  0  0  0  0  0  0  0  0  0  0
    0.3060   -1.0510   -2.3320 H   0  0  0  0  0  0  0  0  0  0  0  0
    6.0680    0.4910    0.0300 C   0  0  0  0  0  0  0  0  0  0  0  0
    5.9840    0.8470   -1.0020 H   0  0  0  0  0  0  0  0  0  0  0  0
    7.1240    0.3020    0.2520 H   0  0  0  0  0  0  0  0  0  0  0  0
   -9.3560   -0.2720    0.3870 C   0  0  0  0  0  0  0  0  0  0  0  0
   -9.6310    0.7730    0.5540 H   0  0  0  0  0  0  0  0  0  0  0  0
   -9.6320   -0.8860    1.2480 H   0  0  0  0  0  0  0  0  0  0  0  0
   -9.8960   -0.6410   -0.4900 H   0  0  0  0  0  0  0  0  0  0  0  0
    5.3460   -3.3630    1.5370 C   0  0  0  0  0  0  0  0  0  0  0  0
    5.7150   -2.7550    2.3660 H   0  0  0  0  0  0  0  0  0  0  0  0
    5.4440   -4.4150    1.8260 H   0  0  0  0  0  0  0  0  0  0  0  0
    4.2880   -3.1770    1.3420 H   0  0  0  0  0  0  0  0  0  0  0  0
    7.2650    3.0290    0.0890 C   0  0  0  0  0  0  0  0  0  0  0  0
    8.1150    2.3750    0.2930 H   0  0  0  0  0  0  0  0  0  0  0  0
    7.5930    4.0610    0.2540 H   0  0  0  0  0  0  0  0  0  0  0  0
    6.9380    2.9490   -0.9500 H   0  0  0  0  0  0  0  0  0  0  0  0
   -0.9650    0.5670   -1.6710 H   0  0  0  0  0  0  0  0  0  0  0  0
   -1.3220    0.1380    1.3410 H   0  0  0  0  0  0  0  0  0  0  0  0
    0.7460    1.2420    0.7460 H   0  0  0  0  0  0  0  0  0  0  0  0
   -3.3860    1.3740    1.3370 H   0  0  0  0  0  0  0  0  0  0  0  0
    2.9200    0.2640    0.8890 H   0  0  0  0  0  0  0  0  0  0  0  0
   -5.5080    0.4320    2.2560 H   0  0  0  0  0  0  0  0  0  0  0  0
    5.0380   -0.9200    1.2860 H   0  0  0  0  0  0  0  0  0  0  0  0
  1  4  1  0  0  0  0
  1  7  1  0  0  0  0
  1  8  1  0  0  0  0
  1 53  1  0  0  0  0
  2  3  1  0  0  0  0
  2  6  1  0  0  0  0
  2 14  1  0  0  0  0
  2 49  1  0  0  0  0
  3  5  1  0  0  0  0
  3 11  1  0  0  0  0
  3 73  1  0  0  0  0
  4  5  1  0  0  0  0
  4 17  1  0  0  0  0
  4 74  1  0  0  0  0
  5 20  1  0  0  0  0
  5 72  1  0  0  0  0
  6 26  1  0  0  0  0
  6 29  1  0  0  0  0
  6 75  1  0  0  0  0
  7 32  1  0  0  0  0
  7 35  1  0  0  0  0
  7 76  1  0  0  0  0
  8  9  1  0  0  0  0
  8 10  1  0  0  0  0
  8 11  1  0  0  0  0
 11 12  1  0  0  0  0
 11 13  1  0  0  0  0
 14 15  1  0  0  0  0
 14 16  1  0  0  0  0
 14 46  1  0  0  0  0
 17 18  1  0  0  0  0
 17 19  1  0  0  0  0
 17 32  1  0  0  0  0
 20 21  1  0  0  0  0
 20 22  1  0  0  0  0
 20 29  1  0  0  0  0
 23 38  1  0  0  0  0
 23 41  2  0  0  0  0
 23 60  1  0  0  0  0
 24 39  1  0  0  0  0
 24 42  2  0  0  0  0
 24 64  1  0  0  0  0
 25 43  2  0  0  0  0
 25 44  1  0  0  0  0
 25 68  1  0  0  0  0
 26 27  1  0  0  0  0
 26 28  1  0  0  0  0
 26 40  1  0  0  0  0
 29 30  1  0  0  0  0
 29 31  1  0  0  0  0
 32 33  1  0  0  0  0
 32 34  1  0  0  0  0
 35 36  1  0  0  0  0
 35 37  1  0  0  0  0
 35 45  1  0  0  0  0
 38 40  1  0  0  0  0
 39 45  1  0  0  0  0
 40 46  1  0  0  0  0
 40 77  1  0  0  0  0
 44 57  1  0  0  0  0
 45 57  1  0  0  0  0
 45 78  1  0  0  0  0
 46 47  1  0  0  0  0
 46 48  1  0  0  0  0
 49 50  1  0  0  0  0
 49 51  1  0  0  0  0
 49 52  1  0  0  0  0
 53 54  1  0  0  0  0
 53 55  1  0  0  0  0
 53 56  1  0  0  0  0
 57 58  1  0  0  0  0
 57 59  1  0  0  0  0
 60 61  1  0  0  0  0
 60 62  1  0  0  0  0
 60 63  1  0  0  0  0
 64 65  1  0  0  0  0
 64 66  1  0  0  0  0
 64 67  1  0  0  0  0
 68 69  1  0  0  0  0
 68 70  1  0  0  0  0
 68 71  1  0  0  0  0
M  END
>  <IDNUMBER>
AO-774/41465521

>  <NAME>
2-(acetyloxy)-1-{[3-(acetyloxy)-10,13-dimethylhexadecahydro-1H-cyclopenta[a]phenanthren-17-yl]methyl}ethyl acetate

>  <ADD_INFO>
http://www.specs.net/enter.php?specsid=AO-774/41465521

>  <H_ACCEPTORS>
6

>  <H_DONORS>
0

>  <ROTATABLE_BONDS>
9

>  <LOGP>
6.5300002

>  <LOGS>
-8.25

>  <TPSA>
78.900002

>  <PRICE>
N06

$$$$
AO-774/41465524
  MOE2011           3D

 71 74  0  0  1  0  0  0  0  0999 V2000
   -1.9370    0.5960   -0.0370 C   0  0  1  0  0  0  0  0  0  0  0  0
    2.5540    0.4210    0.1050 C   0  0  2  0  0  0  0  0  0  0  0  0
   -1.2000   -0.7400    0.2430 C   0  0  2  0  0  0  0  0  0  0  0  0
    1.0310    0.3880    0.5050 C   0  0  2  0  0  0  0  0  0  0  0  0
    0.2570   -0.7480   -0.2350 C   0  0  1  0  0  0  0  0  0  0  0  0
   -3.3550    0.2170    0.5120 C   0  0  1  0  0  0  0  0  0  0  0  0
   -4.5720    1.1650    0.2930 C   0  0  3  0  0  0  0  0  0  0  0  0
    3.1450   -0.9980    0.4010 C   0  0  2  0  0  0  0  0  0  0  0  0
   -1.1900    1.6900    0.7490 C   0  0  0  0  0  0  0  0  0  0  0  0
   -1.6300    2.6760    0.5680 H   0  0  0  0  0  0  0  0  0  0  0  0
   -1.2790    1.5040    1.8270 H   0  0  0  0  0  0  0  0  0  0  0  0
   -5.0550    1.1890   -1.1060 C   0  0  0  0  0  0  0  0  0  0  0  0
   -5.4160    1.2210   -2.2090 N   0  0  0  0  0  0  0  0  0  0  0  0
    0.3050    1.7510    0.3840 C   0  0  0  0  0  0  0  0  0  0  0  0
    0.7760    2.4830    1.0510 H   0  0  0  0  0  0  0  0  0  0  0  0
    0.4070    2.1510   -0.6290 H   0  0  0  0  0  0  0  0  0  0  0  0
   -2.1500   -1.7970   -0.3030 C   0  0  0  0  0  0  0  0  0  0  0  0
   -2.0330   -1.9210   -1.3860 H   0  0  0  0  0  0  0  0  0  0  0  0
   -1.9890   -2.7760    0.1600 H   0  0  0  0  0  0  0  0  0  0  0  0
    3.3260    1.4510    0.9800 C   0  0  0  0  0  0  0  0  0  0  0  0
    2.9970    2.4730    0.7560 H   0  0  0  0  0  0  0  0  0  0  0  0
    3.0910    1.2750    2.0390 H   0  0  0  0  0  0  0  0  0  0  0  0
   -3.5470   -1.2500    0.0280 C   0  0  0  0  0  0  0  0  0  0  0  0
   -4.0050   -1.8520    0.8220 H   0  0  0  0  0  0  0  0  0  0  0  0
   -4.1880   -1.3290   -0.8550 H   0  0  0  0  0  0  0  0  0  0  0  0
    0.9180   -2.1140    0.0000 C   0  0  0  0  0  0  0  0  0  0  0  0
    0.8000   -2.4080    1.0510 H   0  0  0  0  0  0  0  0  0  0  0  0
    0.4190   -2.8830   -0.6000 H   0  0  0  0  0  0  0  0  0  0  0  0
    7.6530    0.1790   -0.1560 C   0  0  0  0  0  0  0  0  0  0  0  0
   -7.4720   -0.6840    0.4370 C   0  0  0  0  0  0  0  0  0  0  0  0
    4.6600   -1.0780    0.1570 C   0  0  0  0  0  0  0  0  0  0  0  0
    4.8660   -0.9820   -0.9100 H   0  0  0  0  0  0  0  0  0  0  0  0
    5.0390   -2.0700    0.4360 H   0  0  0  0  0  0  0  0  0  0  0  0
    2.4040   -2.1090   -0.3500 C   0  0  0  0  0  0  0  0  0  0  0  0
    2.5330   -2.0010   -1.4330 H   0  0  0  0  0  0  0  0  0  0  0  0
    2.8300   -3.0850   -0.0850 H   0  0  0  0  0  0  0  0  0  0  0  0
   -5.7610    0.7910    1.2160 C   0  0  0  0  0  0  0  0  0  0  0  0
   -6.5640    1.5360    1.1290 H   0  0  0  0  0  0  0  0  0  0  0  0
   -5.4400    0.8430    2.2640 H   0  0  0  0  0  0  0  0  0  0  0  0
    6.8400   -0.0730    0.8900 O   0  0  0  0  0  0  0  0  0  0  0  0
   -6.2360   -0.5470    0.9930 O   0  0  0  0  0  0  0  0  0  0  0  0
    5.3920   -0.0200    0.9830 C   0  0  1  0  0  0  0  0  0  0  0  0
    8.8560    0.3590    0.0210 O   0  0  0  0  0  0  0  0  0  0  0  0
   -8.2190    0.2280    0.1180 O   0  0  0  0  0  0  0  0  0  0  0  0
    4.8480    1.3960    0.8090 C   0  0  0  0  0  0  0  0  0  0  0  0
    5.3220    2.0580    1.5450 H   0  0  0  0  0  0  0  0  0  0  0  0
    5.1260    1.8150   -0.1610 H   0  0  0  0  0  0  0  0  0  0  0  0
   -4.1910    2.4940    0.6970 O   0  0  0  0  0  0  0  0  0  0  0  0
   -3.7160    2.9180   -0.0390 H   0  0  0  0  0  0  0  0  0  0  0  0
   -1.9780    0.9710   -1.5360 C   0  0  0  0  0  0  0  0  0  0  0  0
   -0.9820    1.0470   -1.9810 H   0  0  0  0  0  0  0  0  0  0  0  0
   -2.4490    1.9490   -1.6810 H   0  0  0  0  0  0  0  0  0  0  0  0
   -2.5300    0.2420   -2.1350 H   0  0  0  0  0  0  0  0  0  0  0  0
    2.7230    0.8220   -1.3820 C   0  0  0  0  0  0  0  0  0  0  0  0
    3.7650    0.7780   -1.7090 H   0  0  0  0  0  0  0  0  0  0  0  0
    2.3910    1.8510   -1.5560 H   0  0  0  0  0  0  0  0  0  0  0  0
    2.1590    0.1790   -2.0600 H   0  0  0  0  0  0  0  0  0  0  0  0
    7.0820    0.1520   -1.5370 C   0  0  0  0  0  0  0  0  0  0  0  0
    6.2170    0.8030   -1.6400 H   0  0  0  0  0  0  0  0  0  0  0  0
    6.8500   -0.8760   -1.8230 H   0  0  0  0  0  0  0  0  0  0  0  0
    7.8390    0.5270   -2.2350 H   0  0  0  0  0  0  0  0  0  0  0  0
   -7.7870   -2.1370    0.2580 C   0  0  0  0  0  0  0  0  0  0  0  0
   -7.0690   -2.5900   -0.4310 H   0  0  0  0  0  0  0  0  0  0  0  0
   -8.7900   -2.2400   -0.1660 H   0  0  0  0  0  0  0  0  0  0  0  0
   -7.7660   -2.6440    1.2260 H   0  0  0  0  0  0  0  0  0  0  0  0
    0.2750   -0.5660   -1.3140 H   0  0  0  0  0  0  0  0  0  0  0  0
   -1.1700   -0.8950    1.3350 H   0  0  0  0  0  0  0  0  0  0  0  0
    0.9990    0.1370    1.5780 H   0  0  0  0  0  0  0  0  0  0  0  0
    2.9960   -1.1970    1.4740 H   0  0  0  0  0  0  0  0  0  0  0  0
   -3.2310    0.1640    1.6060 H   0  0  0  0  0  0  0  0  0  0  0  0
    5.2070   -0.2830    2.0340 H   0  0  0  0  0  0  0  0  0  0  0  0
  1  3  1  0  0  0  0
  1  6  1  0  0  0  0
  1  9  1  0  0  0  0
  1 50  1  0  0  0  0
  2  4  1  0  0  0  0
  2  8  1  0  0  0  0
  2 20  1  0  0  0  0
  2 54  1  0  0  0  0
  3  5  1  0  0  0  0
  3 17  1  0  0  0  0
  3 67  1  0  0  0  0
  4  5  1  0  0  0  0
  4 14  1  0  0  0  0
  4 68  1  0  0  0  0
  5 26  1  0  0  0  0
  5 66  1  0  0  0  0
  6  7  1  0  0  0  0
  6 23  1  0  0  0  0
  6 70  1  0  0  0  0
  7 12  1  0  0  0  0
  7 37  1  0  0  0  0
  7 48  1  0  0  0  0
  8 31  1  0  0  0  0
  8 34  1  0  0  0  0
  8 69  1  0  0  0  0
  9 10  1  0  0  0  0
  9 11  1  0  0  0  0
  9 14  1  0  0  0  0
 12 13  3  0  0  0  0
 14 15  1  0  0  0  0
 14 16  1  0  0  0  0
 17 18  1  0  0  0  0
 17 19  1  0  0  0  0
 17 23  1  0  0  0  0
 20 21  1  0  0  0  0
 20 22  1  0  0  0  0
 20 45  1  0  0  0  0
 23 24  1  0  0  0  0
 23 25  1  0  0  0  0
 26 27  1  0  0  0  0
 26 28  1  0  0  0  0
 26 34  1  0  0  0  0
 29 40  1  0  0  0  0
 29 43  2  0  0  0  0
 29 58  1  0  0  0  0
 30 41  1  0  0  0  0
 30 44  2  0  0  0  0
 30 62  1  0  0  0  0
 31 32  1  0  0  0  0
 31 33  1  0  0  0  0
 31 42  1  0  0  0  0
 34 35  1  0  0  0  0
 34 36  1  0  0  0  0
 37 38  1  0  0  0  0
 37 39  1  0  0  0  0
 37 41  1  0  0  0  0
 40 42  1  0  0  0  0
 42 45  1  0  0  0  0
 42 71  1  0  0  0  0
 45 46  1  0  0  0  0
 45 47  1  0  0  0  0
 48 49  1  0  0  0  0
 50 51  1  0  0  0  0
 50 52  1  0  0  0  0
 50 53  1  0  0  0  0
 54 55  1  0  0  0  0
 54 56  1  0  0  0  0
 54 57  1  0  0  0  0
 58 59  1  0  0  0  0
 58 60  1  0  0  0  0
 58 61  1  0  0  0  0
 62 63  1  0  0  0  0
 62 64  1  0  0  0  0
 62 65  1  0  0  0  0
M  END
>  <IDNUMBER>
AO-774/41465524

>  <NAME>
17-[2-(acetyloxy)-1-cyano-1-hydroxyethyl]-10,13-dimethylhexadecahydro-1H-cyclopenta[a]phenanthren-3-yl acetate

>  <ADD_INFO>
http://www.specs.net/enter.php?specsid=AO-774/41465524

>  <H_ACCEPTORS>
6

>  <H_DONORS>
1

>  <ROTATABLE_BONDS>
6

>  <LOGP>
4.7199998

>  <LOGS>
-6.7399998

>  <TPSA>
96.620003

>  <PRICE>
N06

$$$$
AO-774/41465527
  MOE2011           3D

 61 64  0  0  1  0  0  0  0  0999 V2000
   -2.1110   -0.3520   -0.2420 C   0  0  1  0  0  0  0  0  0  0  0  0
    2.3310    0.2860   -0.2850 C   0  0  2  0  0  0  0  0  0  0  0  0
   -1.1680   -1.3140    0.5180 C   0  0  2  0  0  0  0  0  0  0  0  0
    0.8290    0.1710    0.1700 C   0  0  2  0  0  0  0  0  0  0  0  0
    0.2760   -1.2800    0.0040 C   0  0  1  0  0  0  0  0  0  0  0  0
   -3.4460   -0.6890    0.4700 C   0  0  2  0  0  0  0  0  0  0  0  0
    3.1480   -0.7630    0.5370 C   0  0  1  0  0  0  0  0  0  0  0  0
   -1.5830    1.0740   -0.0210 C   0  0  0  0  0  0  0  0  0  0  0  0
   -2.1900    1.8050   -0.5650 H   0  0  0  0  0  0  0  0  0  0  0  0
   -1.6550    1.3410    1.0410 H   0  0  0  0  0  0  0  0  0  0  0  0
   -0.1160    1.2220   -0.4660 C   0  0  0  0  0  0  0  0  0  0  0  0
    0.2110    2.2310   -0.1920 H   0  0  0  0  0  0  0  0  0  0  0  0
   -0.0680    1.1690   -1.5580 H   0  0  0  0  0  0  0  0  0  0  0  0
   -1.9180   -2.6400    0.5010 C   0  0  0  0  0  0  0  0  0  0  0  0
   -1.7610   -3.1780   -0.4400 H   0  0  0  0  0  0  0  0  0  0  0  0
   -1.6070   -3.3010    1.3170 H   0  0  0  0  0  0  0  0  0  0  0  0
    2.9000    1.6940    0.0490 C   0  0  0  0  0  0  0  0  0  0  0  0
    2.4130    2.4630   -0.5630 H   0  0  0  0  0  0  0  0  0  0  0  0
    2.6740    1.9400    1.0950 H   0  0  0  0  0  0  0  0  0  0  0  0
   -3.3920   -2.2290    0.6490 C   0  0  0  0  0  0  0  0  0  0  0  0
   -3.7670   -2.4980    1.6440 H   0  0  0  0  0  0  0  0  0  0  0  0
   -4.0010   -2.7770   -0.0770 H   0  0  0  0  0  0  0  0  0  0  0  0
    1.1590   -2.3000    0.7380 C   0  0  0  0  0  0  0  0  0  0  0  0
    1.0700   -2.1530    1.8230 H   0  0  0  0  0  0  0  0  0  0  0  0
    0.8120   -3.3180    0.5290 H   0  0  0  0  0  0  0  0  0  0  0  0
   -4.7170   -0.2140   -0.2370 C   0  0  0  0  0  0  0  0  0  0  0  0
    2.6300   -2.1910    0.3420 C   0  0  0  0  0  0  0  0  0  0  0  0
    2.7640   -2.5170   -0.6960 H   0  0  0  0  0  0  0  0  0  0  0  0
    3.2120   -2.8860    0.9610 H   0  0  0  0  0  0  0  0  0  0  0  0
    4.6580   -0.6750    0.2830 C   0  0  0  0  0  0  0  0  0  0  0  0
    4.9090   -0.9630   -0.7450 H   0  0  0  0  0  0  0  0  0  0  0  0
    5.1900   -1.3970    0.9170 H   0  0  0  0  0  0  0  0  0  0  0  0
   -5.4540   -0.9900   -0.8520 O   0  0  0  0  0  0  0  0  0  0  0  0
   -2.2160   -0.6430   -1.7610 C   0  0  0  0  0  0  0  0  0  0  0  0
   -1.2490   -0.5990   -2.2690 H   0  0  0  0  0  0  0  0  0  0  0  0
   -2.8620    0.0930   -2.2520 H   0  0  0  0  0  0  0  0  0  0  0  0
   -2.6390   -1.6310   -1.9690 H   0  0  0  0  0  0  0  0  0  0  0  0
    4.4120    1.8080   -0.1590 C   0  0  0  0  0  0  0  0  0  0  0  0
    4.7530    2.7960    0.1780 H   0  0  0  0  0  0  0  0  0  0  0  0
    4.6560    1.7740   -1.2270 H   0  0  0  0  0  0  0  0  0  0  0  0
    5.1860    0.7260    0.5870 C   0  0  2  0  0  0  0  0  0  0  0  0
    2.4630    0.0570   -1.8130 C   0  0  0  0  0  0  0  0  0  0  0  0
    3.5050    0.0410   -2.1440 H   0  0  0  0  0  0  0  0  0  0  0  0
    1.9730    0.8570   -2.3770 H   0  0  0  0  0  0  0  0  0  0  0  0
    2.0200   -0.8880   -2.1380 H   0  0  0  0  0  0  0  0  0  0  0  0
    6.5610    0.7830    0.2220 O   0  0  0  0  0  0  0  0  0  0  0  0
    6.8830    1.6760    0.4300 H   0  0  0  0  0  0  0  0  0  0  0  0
   -5.0280    1.2760   -0.2270 C   0  0  0  0  0  0  0  0  0  0  0  0
   -6.1000    1.4000   -0.4150 H   0  0  0  0  0  0  0  0  0  0  0  0
   -4.4630    1.7510   -1.0360 H   0  0  0  0  0  0  0  0  0  0  0  0
   -4.7020    1.8610    1.0230 O   0  0  0  0  0  0  0  0  0  0  0  0
   -4.9590    3.2590    1.0320 C   0  0  0  0  0  0  0  0  0  0  0  0
   -4.6920    3.6510    2.0170 H   0  0  0  0  0  0  0  0  0  0  0  0
   -6.0200    3.4560    0.8530 H   0  0  0  0  0  0  0  0  0  0  0  0
   -4.3480    3.7640    0.2780 H   0  0  0  0  0  0  0  0  0  0  0  0
   -1.1330   -0.9990    1.5750 H   0  0  0  0  0  0  0  0  0  0  0  0
    0.2780   -1.5570   -1.0550 H   0  0  0  0  0  0  0  0  0  0  0  0
    0.8160    0.3860    1.2510 H   0  0  0  0  0  0  0  0  0  0  0  0
    3.0060   -0.5250    1.6030 H   0  0  0  0  0  0  0  0  0  0  0  0
   -3.4550   -0.2540    1.4780 H   0  0  0  0  0  0  0  0  0  0  0  0
    5.1230    0.9070    1.6670 H   0  0  0  0  0  0  0  0  0  0  0  0
  1  3  1  0  0  0  0
  1  6  1  0  0  0  0
  1  8  1  0  0  0  0
  1 34  1  0  0  0  0
  2  4  1  0  0  0  0
  2  7  1  0  0  0  0
  2 17  1  0  0  0  0
  2 42  1  0  0  0  0
  3  5  1  0  0  0  0
  3 14  1  0  0  0  0
  3 56  1  0  0  0  0
  4  5  1  0  0  0  0
  4 11  1  0  0  0  0
  4 58  1  0  0  0  0
  5 23  1  0  0  0  0
  5 57  1  0  0  0  0
  6 20  1  0  0  0  0
  6 26  1  0  0  0  0
  6 60  1  0  0  0  0
  7 27  1  0  0  0  0
  7 30  1  0  0  0  0
  7 59  1  0  0  0  0
  8  9  1  0  0  0  0
  8 10  1  0  0  0  0
  8 11  1  0  0  0  0
 11 12  1  0  0  0  0
 11 13  1  0  0  0  0
 14 15  1  0  0  0  0
 14 16  1  0  0  0  0
 14 20  1  0  0  0  0
 17 18  1  0  0  0  0
 17 19  1  0  0  0  0
 17 38  1  0  0  0  0
 20 21  1  0  0  0  0
 20 22  1  0  0  0  0
 23 24  1  0  0  0  0
 23 25  1  0  0  0  0
 23 27  1  0  0  0  0
 26 33  2  0  0  0  0
 26 48  1  0  0  0  0
 27 28  1  0  0  0  0
 27 29  1  0  0  0  0
 30 31  1  0  0  0  0
 30 32  1  0  0  0  0
 30 41  1  0  0  0  0
 34 35  1  0  0  0  0
 34 36  1  0  0  0  0
 34 37  1  0  0  0  0
 38 39  1  0  0  0  0
 38 40  1  0  0  0  0
 38 41  1  0  0  0  0
 41 46  1  0  0  0  0
 41 61  1  0  0  0  0
 42 43  1  0  0  0  0
 42 44  1  0  0  0  0
 42 45  1  0  0  0  0
 46 47  1  0  0  0  0
 48 49  1  0  0  0  0
 48 50  1  0  0  0  0
 48 51  1  0  0  0  0
 51 52  1  0  0  0  0
 52 53  1  0  0  0  0
 52 54  1  0  0  0  0
 52 55  1  0  0  0  0
M  END
>  <IDNUMBER>
AO-774/41465527

>  <NAME>
3,21-Dihydroxypregnan-20-one, Derivative of

>  <ADD_INFO>
http://www.specs.net/enter.php?specsid=AO-774/41465527

>  <H_ACCEPTORS>
3

>  <H_DONORS>
1

>  <ROTATABLE_BONDS>
3

>  <LOGP>
3.71

>  <LOGS>
-4.4000001

>  <TPSA>
46.529999

>  <PRICE>
N06

$$$$
AO-774/41465532
  MOE2011           3D

 73 77  0  0  1  0  0  0  0  0999 V2000
    0.6750    1.0240   -0.2700 C   0  0  2  0  0  0  0  0  0  0  0  0
   -3.7400    0.3080   -0.1470 C   0  0  2  0  0  0  0  0  0  0  0  0
   -0.7790    0.6620    0.2130 C   0  0  2  0  0  0  0  0  0  0  0  0
   -2.7560   -0.8750   -0.0110 C   0  0  2  0  0  0  0  0  0  0  0  0
   -1.3640   -0.5590   -0.5690 C   0  0  2  0  0  0  0  0  0  0  0  0
    1.5530   -0.2570   -0.1170 C   0  0  2  0  0  0  0  0  0  0  0  0
   -3.1860    1.4760    0.6820 C   0  0  0  0  0  0  0  0  0  0  0  0
   -3.8420    2.3510    0.6040 H   0  0  0  0  0  0  0  0  0  0  0  0
   -3.1600    1.2050    1.7450 H   0  0  0  0  0  0  0  0  0  0  0  0
   -1.7620    1.8610    0.2410 C   0  0  0  0  0  0  0  0  0  0  0  0
   -1.3970    2.6250    0.9370 H   0  0  0  0  0  0  0  0  0  0  0  0
   -1.8110    2.3400   -0.7420 H   0  0  0  0  0  0  0  0  0  0  0  0
    1.2970    2.1210    0.6370 C   0  0  0  0  0  0  0  0  0  0  0  0
    0.7660    3.0720    0.5130 H   0  0  0  0  0  0  0  0  0  0  0  0
    1.1820    1.8350    1.6910 H   0  0  0  0  0  0  0  0  0  0  0  0
   -0.4310   -1.7750   -0.4800 C   0  0  0  0  0  0  0  0  0  0  0  0
   -0.4150   -2.1550    0.5500 H   0  0  0  0  0  0  0  0  0  0  0  0
   -0.8100   -2.5880   -1.1090 H   0  0  0  0  0  0  0  0  0  0  0  0
   -3.5340   -2.0550   -0.5840 C   0  0  0  0  0  0  0  0  0  0  0  0
   -3.4460   -2.1040   -1.6750 H   0  0  0  0  0  0  0  0  0  0  0  0
   -3.1840   -3.0110   -0.1800 H   0  0  0  0  0  0  0  0  0  0  0  0
   -5.0130   -0.3570    0.4410 C   0  0  2  0  0  0  0  0  0  0  0  0
    3.0350   -0.0130   -0.4400 C   0  0  0  0  0  0  0  0  0  0  0  0
    3.1790    0.2210   -1.5010 H   0  0  0  0  0  0  0  0  0  0  0  0
    3.5820   -0.9450   -0.2670 H   0  0  0  0  0  0  0  0  0  0  0  0
    0.9970   -1.4450   -0.9100 C   0  0  0  0  0  0  0  0  0  0  0  0
    1.0270   -1.2420   -1.9870 H   0  0  0  0  0  0  0  0  0  0  0  0
    1.6250   -2.3290   -0.7440 H   0  0  0  0  0  0  0  0  0  0  0  0
   -4.9930   -1.7780   -0.1750 C   0  0  0  0  0  0  0  0  0  0  0  0
   -5.3400   -2.5150    0.5580 H   0  0  0  0  0  0  0  0  0  0  0  0
   -5.6450   -1.8550   -1.0520 H   0  0  0  0  0  0  0  0  0  0  0  0
    3.6310    1.0930    0.4360 C   0  0  1  0  0  0  0  0  0  0  0  0
    4.9480    1.4810    0.0310 O   0  0  0  0  0  0  0  0  0  0  0  0
    5.4270   -1.2990    1.6530 O   0  0  0  0  0  0  0  0  0  0  0  0
    2.7810    2.3680    0.3600 C   0  0  0  0  0  0  0  0  0  0  0  0
    3.1660    3.0990    1.0830 H   0  0  0  0  0  0  0  0  0  0  0  0
    2.9120    2.8470   -0.6180 H   0  0  0  0  0  0  0  0  0  0  0  0
    0.6560    1.5450   -1.7300 C   0  0  0  0  0  0  0  0  0  0  0  0
    1.6610    1.7200   -2.1240 H   0  0  0  0  0  0  0  0  0  0  0  0
    0.1260    2.5010   -1.8030 H   0  0  0  0  0  0  0  0  0  0  0  0
    0.1700    0.8510   -2.4200 H   0  0  0  0  0  0  0  0  0  0  0  0
   -3.9750    0.7710   -1.6070 C   0  0  0  0  0  0  0  0  0  0  0  0
   -4.6440    1.6380   -1.6350 H   0  0  0  0  0  0  0  0  0  0  0  0
   -4.4290   -0.0090   -2.2250 H   0  0  0  0  0  0  0  0  0  0  0  0
   -3.0530    1.0750   -2.1090 H   0  0  0  0  0  0  0  0  0  0  0  0
    6.0690    0.6460    0.3410 C   0  0  3  0  0  0  0  0  0  0  0  0
   -7.3170   -0.2370    2.3270 O   0  0  0  0  0  0  0  0  0  0  0  0
   -8.0980   -0.6490    2.7330 H   0  0  0  0  0  0  0  0  0  0  0  0
    6.0600   -0.0220    1.7240 C   0  0  0  0  0  0  0  0  0  0  0  0
    5.5330    0.5880    2.4640 H   0  0  0  0  0  0  0  0  0  0  0  0
    7.0820   -0.1640    2.0970 H   0  0  0  0  0  0  0  0  0  0  0  0
    6.1530   -2.2440    0.8630 C   0  0  0  0  0  0  0  0  0  0  0  0
    6.7910   -2.8370    1.5280 H   0  0  0  0  0  0  0  0  0  0  0  0
    5.4140   -2.9280    0.4330 H   0  0  0  0  0  0  0  0  0  0  0  0
   -6.3320    0.3950    0.2150 C   0  0  0  0  0  0  0  0  0  0  0  0
   -6.5620    0.4570   -0.8550 H   0  0  0  0  0  0  0  0  0  0  0  0
   -6.2160    1.4200    0.5880 H   0  0  0  0  0  0  0  0  0  0  0  0
   -7.5220   -0.2490    0.9220 C   0  0  0  0  0  0  0  0  0  0  0  0
   -7.6700   -1.2820    0.5950 H   0  0  0  0  0  0  0  0  0  0  0  0
   -8.4330    0.3170    0.7050 H   0  0  0  0  0  0  0  0  0  0  0  0
    6.3470   -0.3520   -0.7920 C   0  0  0  0  0  0  0  0  0  0  0  0
    5.4410   -0.6070   -1.3470 H   0  0  0  0  0  0  0  0  0  0  0  0
    7.0090    0.1160   -1.5310 H   0  0  0  0  0  0  0  0  0  0  0  0
    6.9920   -1.6200   -0.2530 C   0  0  0  0  0  0  0  0  0  0  0  0
    7.9840   -1.3670    0.1440 H   0  0  0  0  0  0  0  0  0  0  0  0
    7.1600   -2.3490   -1.0540 H   0  0  0  0  0  0  0  0  0  0  0  0
   -1.4600   -0.3070   -1.6300 H   0  0  0  0  0  0  0  0  0  0  0  0
   -0.6850    0.3410    1.2630 H   0  0  0  0  0  0  0  0  0  0  0  0
   -2.6220   -1.0930    1.0620 H   0  0  0  0  0  0  0  0  0  0  0  0
    1.5200   -0.5520    0.9440 H   0  0  0  0  0  0  0  0  0  0  0  0
   -4.8670   -0.4660    1.5260 H   0  0  0  0  0  0  0  0  0  0  0  0
    3.6310    0.7710    1.4820 H   0  0  0  0  0  0  0  0  0  0  0  0
    6.9120    1.3490    0.3590 H   0  0  0  0  0  0  0  0  0  0  0  0
  1  3  1  0  0  0  0
  1  6  1  0  0  0  0
  1 13  1  0  0  0  0
  1 38  1  0  0  0  0
  2  4  1  0  0  0  0
  2  7  1  0  0  0  0
  2 22  1  0  0  0  0
  2 42  1  0  0  0  0
  3  5  1  0  0  0  0
  3 10  1  0  0  0  0
  3 68  1  0  0  0  0
  4  5  1  0  0  0  0
  4 19  1  0  0  0  0
  4 69  1  0  0  0  0
  5 16  1  0  0  0  0
  5 67  1  0  0  0  0
  6 23  1  0  0  0  0
  6 26  1  0  0  0  0
  6 70  1  0  0  0  0
  7  8  1  0  0  0  0
  7  9  1  0  0  0  0
  7 10  1  0  0  0  0
 10 11  1  0  0  0  0
 10 12  1  0  0  0  0
 13 14  1  0  0  0  0
 13 15  1  0  0  0  0
 13 35  1  0  0  0  0
 16 17  1  0  0  0  0
 16 18  1  0  0  0  0
 16 26  1  0  0  0  0
 19 20  1  0  0  0  0
 19 21  1  0  0  0  0
 19 29  1  0  0  0  0
 22 29  1  0  0  0  0
 22 55  1  0  0  0  0
 22 71  1  0  0  0  0
 23 24  1  0  0  0  0
 23 25  1  0  0  0  0
 23 32  1  0  0  0  0
 26 27  1  0  0  0  0
 26 28  1  0  0  0  0
 29 30  1  0  0  0  0
 29 31  1  0  0  0  0
 32 33  1  0  0  0  0
 32 35  1  0  0  0  0
 32 72  1  0  0  0  0
 33 46  1  0  0  0  0
 34 49  1  0  0  0  0
 34 52  1  0  0  0  0
 35 36  1  0  0  0  0
 35 37  1  0  0  0  0
 38 39  1  0  0  0  0
 38 40  1  0  0  0  0
 38 41  1  0  0  0  0
 42 43  1  0  0  0  0
 42 44  1  0  0  0  0
 42 45  1  0  0  0  0
 46 49  1  0  0  0  0
 46 61  1  0  0  0  0
 46 73  1  0  0  0  0
 47 48  1  0  0  0  0
 47 58  1  0  0  0  0
 49 50  1  0  0  0  0
 49 51  1  0  0  0  0
 52 53  1  0  0  0  0
 52 54  1  0  0  0  0
 52 64  1  0  0  0  0
 55 56  1  0  0  0  0
 55 57  1  0  0  0  0
 55 58  1  0  0  0  0
 58 59  1  0  0  0  0
 58 60  1  0  0  0  0
 61 62  1  0  0  0  0
 61 63  1  0  0  0  0
 61 64  1  0  0  0  0
 64 65  1  0  0  0  0
 64 66  1  0  0  0  0
M  END
>  <IDNUMBER>
AO-774/41465532

>  <NAME>
3,21-Dihydroxypregnan-20-one, Derivative of

>  <ADD_INFO>
http://www.specs.net/enter.php?specsid=AO-774/41465532

>  <H_ACCEPTORS>
3

>  <H_DONORS>
1

>  <ROTATABLE_BONDS>
4

>  <LOGP>
5.7800002

>  <LOGS>
-6.5799999

>  <TPSA>
38.689999

>  <PRICE>
N06

$$$$
AO-774/41465533
  MOE2011           3D

 72 75  0  0  1  0  0  0  0  0999 V2000
    1.6450   -0.0060   -0.2110 C   0  0  1  0  0  0  0  0  0  0  0  0
   -2.5970   -1.3010    0.0680 C   0  0  2  0  0  0  0  0  0  0  0  0
    0.5570    1.0820   -0.0180 C   0  0  2  0  0  0  0  0  0  0  0  0
   -1.2200   -0.6650    0.5410 C   0  0  2  0  0  0  0  0  0  0  0  0
   -0.8790    0.6050   -0.2980 C   0  0  1  0  0  0  0  0  0  0  0  0
   -3.6710   -0.1840   -0.2060 C   0  0  2  0  0  0  0  0  0  0  0  0
   -1.9480    1.7140   -0.0780 C   0  0  1  0  0  0  0  0  0  0  0  0
    2.9260    0.8470    0.0610 C   0  0  2  0  0  0  0  0  0  0  0  0
    1.3300   -1.0900    0.8330 C   0  0  0  0  0  0  0  0  0  0  0  0
    2.0600   -1.9030    0.8030 H   0  0  0  0  0  0  0  0  0  0  0  0
    1.3820   -0.6710    1.8460 H   0  0  0  0  0  0  0  0  0  0  0  0
   -3.2910    1.1660    0.4140 C   0  0  0  0  0  0  0  0  0  0  0  0
   -3.2760    1.0770    1.5100 H   0  0  0  0  0  0  0  0  0  0  0  0
   -4.0720    1.9080    0.2040 H   0  0  0  0  0  0  0  0  0  0  0  0
   -0.0630   -1.6970    0.6150 C   0  0  0  0  0  0  0  0  0  0  0  0
   -0.2550   -2.3980    1.4360 H   0  0  0  0  0  0  0  0  0  0  0  0
   -0.0200   -2.3050   -0.2920 H   0  0  0  0  0  0  0  0  0  0  0  0
    1.0770    2.2530   -0.8390 C   0  0  0  0  0  0  0  0  0  0  0  0
    0.8230    2.1420   -1.9000 H   0  0  0  0  0  0  0  0  0  0  0  0
    0.6790    3.2160   -0.5090 H   0  0  0  0  0  0  0  0  0  0  0  0
   -1.4990    2.6630    0.9290 O   0  0  0  0  0  0  0  0  0  0  0  0
   -3.1190   -2.2660    1.1660 C   0  0  0  0  0  0  0  0  0  0  0  0
   -2.3920   -3.0610    1.3710 H   0  0  0  0  0  0  0  0  0  0  0  0
   -3.2270   -1.7080    2.1060 H   0  0  0  0  0  0  0  0  0  0  0  0
    2.5960    2.1970   -0.6430 C   0  0  0  0  0  0  0  0  0  0  0  0
    2.9330    3.0360   -0.0240 H   0  0  0  0  0  0  0  0  0  0  0  0
    3.0900    2.2860   -1.6170 H   0  0  0  0  0  0  0  0  0  0  0  0
   -1.6650    4.0070    0.8660 C   0  0  0  0  0  0  0  0  0  0  0  0
    7.2160   -1.2380    0.8110 C   0  0  0  0  0  0  0  0  0  0  0  0
   -5.0940   -0.5560    0.2740 C   0  0  0  0  0  0  0  0  0  0  0  0
   -5.8330    0.0650   -0.2500 H   0  0  0  0  0  0  0  0  0  0  0  0
   -5.2200   -0.3050    1.3370 H   0  0  0  0  0  0  0  0  0  0  0  0
   -1.2150    4.7430    1.7400 O   0  0  0  0  0  0  0  0  0  0  0  0
    8.3350   -1.2410    0.2210 O   0  0  0  0  0  0  0  0  0  0  0  0
    4.3280    0.3070   -0.3620 C   0  0  3  0  0  0  0  0  0  0  0  0
    4.6550   -1.0650    0.2730 C   0  0  0  0  0  0  0  0  0  0  0  0
    4.5190   -1.0130    1.3590 H   0  0  0  0  0  0  0  0  0  0  0  0
    3.9330   -1.7950   -0.1020 H   0  0  0  0  0  0  0  0  0  0  0  0
    6.0330   -1.6310   -0.0800 C   0  0  0  0  0  0  0  0  0  0  0  0
    6.2680   -1.4110   -1.1290 H   0  0  0  0  0  0  0  0  0  0  0  0
    5.9770   -2.7250   -0.0020 H   0  0  0  0  0  0  0  0  0  0  0  0
    1.6770   -0.6040   -1.6380 C   0  0  0  0  0  0  0  0  0  0  0  0
    2.3900   -1.4320   -1.7010 H   0  0  0  0  0  0  0  0  0  0  0  0
    1.9740    0.1320   -2.3910 H   0  0  0  0  0  0  0  0  0  0  0  0
    0.7090   -1.0010   -1.9530 H   0  0  0  0  0  0  0  0  0  0  0  0
   -4.4620   -2.9290    0.8440 C   0  0  0  0  0  0  0  0  0  0  0  0
   -4.9160   -3.2810    1.7800 H   0  0  0  0  0  0  0  0  0  0  0  0
   -4.2900   -3.8370    0.2510 H   0  0  0  0  0  0  0  0  0  0  0  0
   -5.4280   -2.0280    0.0760 C   0  0  1  0  0  0  0  0  0  0  0  0
   -2.4010   -2.1130   -1.2430 C   0  0  0  0  0  0  0  0  0  0  0  0
   -3.3510   -2.3850   -1.7110 H   0  0  0  0  0  0  0  0  0  0  0  0
   -1.8680   -3.0530   -1.0630 H   0  0  0  0  0  0  0  0  0  0  0  0
   -1.8410   -1.5470   -1.9930 H   0  0  0  0  0  0  0  0  0  0  0  0
    6.9480   -0.9780    2.0160 O   0  5  0  0  0  0  0  0  0  0  0  0
   -6.7630   -2.2740    0.5160 O   0  0  0  0  0  0  0  0  0  0  0  0
   -6.9540   -3.2160    0.3650 H   0  0  0  0  0  0  0  0  0  0  0  0
   -2.3950    4.5580   -0.3220 C   0  0  0  0  0  0  0  0  0  0  0  0
   -3.3860    4.1100   -0.4100 H   0  0  0  0  0  0  0  0  0  0  0  0
   -1.8050    4.4140   -1.2300 H   0  0  0  0  0  0  0  0  0  0  0  0
   -2.5360    5.6350   -0.1820 H   0  0  0  0  0  0  0  0  0  0  0  0
    5.4150    1.3430   -0.0240 C   0  0  0  0  0  0  0  0  0  0  0  0
    6.3890    1.0420   -0.4210 H   0  0  0  0  0  0  0  0  0  0  0  0
    5.5070    1.4780    1.0580 H   0  0  0  0  0  0  0  0  0  0  0  0
    5.2000    2.3190   -0.4680 H   0  0  0  0  0  0  0  0  0  0  0  0
   -0.9430    0.3310   -1.3570 H   0  0  0  0  0  0  0  0  0  0  0  0
    0.5910    1.3960    1.0380 H   0  0  0  0  0  0  0  0  0  0  0  0
   -1.3540   -0.3180    1.5770 H   0  0  0  0  0  0  0  0  0  0  0  0
   -3.7310   -0.0230   -1.2930 H   0  0  0  0  0  0  0  0  0  0  0  0
   -2.0830    2.2170   -1.0410 H   0  0  0  0  0  0  0  0  0  0  0  0
    2.9700    1.0480    1.1430 H   0  0  0  0  0  0  0  0  0  0  0  0
    4.3360    0.1800   -1.4530 H   0  0  0  0  0  0  0  0  0  0  0  0
   -5.4050   -2.2630   -0.9930 H   0  0  0  0  0  0  0  0  0  0  0  0
  1  3  1  0  0  0  0
  1  8  1  0  0  0  0
  1  9  1  0  0  0  0
  1 42  1  0  0  0  0
  2  4  1  0  0  0  0
  2  6  1  0  0  0  0
  2 22  1  0  0  0  0
  2 50  1  0  0  0  0
  3  5  1  0  0  0  0
  3 18  1  0  0  0  0
  3 66  1  0  0  0  0
  4  5  1  0  0  0  0
  4 15  1  0  0  0  0
  4 67  1  0  0  0  0
  5  7  1  0  0  0  0
  5 65  1  0  0  0  0
  6 12  1  0  0  0  0
  6 30  1  0  0  0  0
  6 68  1  0  0  0  0
  7 12  1  0  0  0  0
  7 21  1  0  0  0  0
  7 69  1  0  0  0  0
  8 25  1  0  0  0  0
  8 35  1  0  0  0  0
  8 70  1  0  0  0  0
  9 10  1  0  0  0  0
  9 11  1  0  0  0  0
  9 15  1  0  0  0  0
 12 13  1  0  0  0  0
 12 14  1  0  0  0  0
 15 16  1  0  0  0  0
 15 17  1  0  0  0  0
 18 19  1  0  0  0  0
 18 20  1  0  0  0  0
 18 25  1  0  0  0  0
 21 28  1  0  0  0  0
 22 23  1  0  0  0  0
 22 24  1  0  0  0  0
 22 46  1  0  0  0  0
 25 26  1  0  0  0  0
 25 27  1  0  0  0  0
 28 33  2  0  0  0  0
 28 57  1  0  0  0  0
 29 34  2  0  0  0  0
 29 39  1  0  0  0  0
 29 54  1  0  0  0  0
 30 31  1  0  0  0  0
 30 32  1  0  0  0  0
 30 49  1  0  0  0  0
 35 36  1  0  0  0  0
 35 61  1  0  0  0  0
 35 71  1  0  0  0  0
 36 37  1  0  0  0  0
 36 38  1  0  0  0  0
 36 39  1  0  0  0  0
 39 40  1  0  0  0  0
 39 41  1  0  0  0  0
 42 43  1  0  0  0  0
 42 44  1  0  0  0  0
 42 45  1  0  0  0  0
 46 47  1  0  0  0  0
 46 48  1  0  0  0  0
 46 49  1  0  0  0  0
 49 55  1  0  0  0  0
 49 72  1  0  0  0  0
 50 51  1  0  0  0  0
 50 52  1  0  0  0  0
 50 53  1  0  0  0  0
 55 56  1  0  0  0  0
 57 58  1  0  0  0  0
 57 59  1  0  0  0  0
 57 60  1  0  0  0  0
 61 62  1  0  0  0  0
 61 63  1  0  0  0  0
 61 64  1  0  0  0  0
M  CHG  1  54  -1
M  END
>  <IDNUMBER>
AO-774/41465533

>  <NAME>
3,7-Dihydroxycholan-24-oic acid, Derivative of

>  <ADD_INFO>
http://www.specs.net/enter.php?specsid=AO-774/41465533

>  <H_ACCEPTORS>
5

>  <H_DONORS>
2

>  <ROTATABLE_BONDS>
6

>  <LOGP>
5.6500001

>  <LOGS>
-6.29

>  <TPSA>
83.830002

>  <PRICE>
N06

$$$$
AO-774/41465534
  MOE2011           3D

 76 79  0  0  1  0  0  0  0  0999 V2000
    1.3940    0.5160   -0.1470 C   0  0  1  0  0  0  0  0  0  0  0  0
   -2.5170   -1.6540   -0.1580 C   0  0  2  0  0  0  0  0  0  0  0  0
    0.0820    1.3320   -0.2210 C   0  0  2  0  0  0  0  0  0  0  0  0
   -1.3380   -0.6990    0.3240 C   0  0  2  0  0  0  0  0  0  0  0  0
   -1.1580    0.5170   -0.6270 C   0  0  1  0  0  0  0  0  0  0  0  0
   -3.5700   -0.8610   -1.0060 C   0  0  2  0  0  0  0  0  0  0  0  0
   -2.4500    1.3870   -0.6500 C   0  0  1  0  0  0  0  0  0  0  0  0
    2.3870    1.6690    0.2020 C   0  0  2  0  0  0  0  0  0  0  0  0
    1.1790   -0.5410    0.9470 C   0  0  0  0  0  0  0  0  0  0  0  0
    2.0650   -1.1700    1.0660 H   0  0  0  0  0  0  0  0  0  0  0  0
    1.0090   -0.0560    1.9170 H   0  0  0  0  0  0  0  0  0  0  0  0
   -3.7350    0.5630   -0.4760 C   0  0  0  0  0  0  0  0  0  0  0  0
   -4.0310    0.5510    0.5800 H   0  0  0  0  0  0  0  0  0  0  0  0
   -4.5500    1.0760   -1.0030 H   0  0  0  0  0  0  0  0  0  0  0  0
   -0.0160   -1.4510    0.6310 C   0  0  0  0  0  0  0  0  0  0  0  0
   -0.1730   -2.1280    1.4800 H   0  0  0  0  0  0  0  0  0  0  0  0
    0.2750   -2.0860   -0.2110 H   0  0  0  0  0  0  0  0  0  0  0  0
    0.4440    2.5350   -1.0830 C   0  0  0  0  0  0  0  0  0  0  0  0
    0.3320    2.3150   -2.1500 H   0  0  0  0  0  0  0  0  0  0  0  0
   -0.1800    3.4060   -0.8600 H   0  0  0  0  0  0  0  0  0  0  0  0
   -2.4130    2.3620    0.4150 O   0  0  0  0  0  0  0  0  0  0  0  0
   -3.1730   -2.2640    1.1150 C   0  0  0  0  0  0  0  0  0  0  0  0
   -2.4640   -2.9340    1.6180 H   0  0  0  0  0  0  0  0  0  0  0  0
   -3.3950   -1.4660    1.8360 H   0  0  0  0  0  0  0  0  0  0  0  0
    1.9160    2.8110   -0.7450 C   0  0  0  0  0  0  0  0  0  0  0  0
    2.0250    3.7850   -0.2560 H   0  0  0  0  0  0  0  0  0  0  0  0
    2.5000    2.8380   -1.6720 H   0  0  0  0  0  0  0  0  0  0  0  0
   -3.1440    3.4960    0.2320 C   0  0  0  0  0  0  0  0  0  0  0  0
    6.2250   -0.8520    0.0170 C   0  0  0  0  0  0  0  0  0  0  0  0
   -4.9270   -1.5840   -1.1600 C   0  0  0  0  0  0  0  0  0  0  0  0
   -4.8050   -2.3990   -1.8840 H   0  0  0  0  0  0  0  0  0  0  0  0
   -5.6560   -0.8920   -1.6010 H   0  0  0  0  0  0  0  0  0  0  0  0
   -3.8170    3.7680   -0.7510 O   0  0  0  0  0  0  0  0  0  0  0  0
    6.8870    0.1740   -0.0980 O   0  0  0  0  0  0  0  0  0  0  0  0
    3.9210    1.4050    0.1320 C   0  0  3  0  0  0  0  0  0  0  0  0
    4.4170    0.4580    1.2580 C   0  0  0  0  0  0  0  0  0  0  0  0
    5.2340    0.9250    1.8230 H   0  0  0  0  0  0  0  0  0  0  0  0
    3.6210    0.2980    1.9930 H   0  0  0  0  0  0  0  0  0  0  0  0
    4.9050   -0.9090    0.7600 C   0  0  0  0  0  0  0  0  0  0  0  0
    4.1470   -1.3530    0.1130 H   0  0  0  0  0  0  0  0  0  0  0  0
    5.0470   -1.5500    1.6370 H   0  0  0  0  0  0  0  0  0  0  0  0
    1.7690   -0.1570   -1.4910 C   0  0  0  0  0  0  0  0  0  0  0  0
    2.6540   -0.7900   -1.3810 H   0  0  0  0  0  0  0  0  0  0  0  0
    1.9930    0.5700   -2.2770 H   0  0  0  0  0  0  0  0  0  0  0  0
    0.9740   -0.7990   -1.8790 H   0  0  0  0  0  0  0  0  0  0  0  0
   -4.4660   -3.0310    0.8510 C   0  0  0  0  0  0  0  0  0  0  0  0
   -4.8730   -3.3640    1.8130 H   0  0  0  0  0  0  0  0  0  0  0  0
   -4.2550   -3.9330    0.2650 H   0  0  0  0  0  0  0  0  0  0  0  0
   -5.4950   -2.1710    0.1280 C   0  0  1  0  0  0  0  0  0  0  0  0
   -1.9930   -2.8090   -1.0490 C   0  0  0  0  0  0  0  0  0  0  0  0
   -2.8060   -3.3930   -1.4920 H   0  0  0  0  0  0  0  0  0  0  0  0
   -1.3820   -3.5180   -0.4790 H   0  0  0  0  0  0  0  0  0  0  0  0
   -1.3890   -2.4230   -1.8770 H   0  0  0  0  0  0  0  0  0  0  0  0
    6.6650   -2.0180   -0.5250 O   0  0  0  0  0  0  0  0  0  0  0  0
   -5.9370   -1.1160    0.9750 O   0  0  0  0  0  0  0  0  0  0  0  0
   -6.3150   -1.5200    1.7750 H   0  0  0  0  0  0  0  0  0  0  0  0
   -2.9960    4.3880    1.4260 C   0  0  0  0  0  0  0  0  0  0  0  0
   -1.9540    4.7010    1.5270 H   0  0  0  0  0  0  0  0  0  0  0  0
   -3.3290    3.8640    2.3250 H   0  0  0  0  0  0  0  0  0  0  0  0
   -3.6180    5.2780    1.2930 H   0  0  0  0  0  0  0  0  0  0  0  0
    4.6960    2.7320    0.2500 C   0  0  0  0  0  0  0  0  0  0  0  0
    5.7770    2.5590    0.2580 H   0  0  0  0  0  0  0  0  0  0  0  0
    4.4330    3.2620    1.1720 H   0  0  0  0  0  0  0  0  0  0  0  0
    4.4940    3.3960   -0.5960 H   0  0  0  0  0  0  0  0  0  0  0  0
    5.9490   -3.2530   -0.3710 C   0  0  0  0  0  0  0  0  0  0  0  0
    6.5520   -4.0460   -0.8240 H   0  0  0  0  0  0  0  0  0  0  0  0
    4.9940   -3.2060   -0.8990 H   0  0  0  0  0  0  0  0  0  0  0  0
    5.8110   -3.4920    0.6870 H   0  0  0  0  0  0  0  0  0  0  0  0
   -1.0120    0.1290   -1.6430 H   0  0  0  0  0  0  0  0  0  0  0  0
   -0.1110    1.7220    0.7920 H   0  0  0  0  0  0  0  0  0  0  0  0
   -1.6420   -0.2610    1.2880 H   0  0  0  0  0  0  0  0  0  0  0  0
   -3.1820   -0.7580   -2.0310 H   0  0  0  0  0  0  0  0  0  0  0  0
   -2.4680    1.9080   -1.6160 H   0  0  0  0  0  0  0  0  0  0  0  0
    2.1680    2.0060    1.2280 H   0  0  0  0  0  0  0  0  0  0  0  0
    4.1680    0.9820   -0.8480 H   0  0  0  0  0  0  0  0  0  0  0  0
   -6.3760   -2.7770   -0.1140 H   0  0  0  0  0  0  0  0  0  0  0  0
  1  3  1  0  0  0  0
  1  8  1  0  0  0  0
  1  9  1  0  0  0  0
  1 42  1  0  0  0  0
  2  4  1  0  0  0  0
  2  6  1  0  0  0  0
  2 22  1  0  0  0  0
  2 50  1  0  0  0  0
  3  5  1  0  0  0  0
  3 18  1  0  0  0  0
  3 70  1  0  0  0  0
  4  5  1  0  0  0  0
  4 15  1  0  0  0  0
  4 71  1  0  0  0  0
  5  7  1  0  0  0  0
  5 69  1  0  0  0  0
  6 12  1  0  0  0  0
  6 30  1  0  0  0  0
  6 72  1  0  0  0  0
  7 12  1  0  0  0  0
  7 21  1  0  0  0  0
  7 73  1  0  0  0  0
  8 25  1  0  0  0  0
  8 35  1  0  0  0  0
  8 74  1  0  0  0  0
  9 10  1  0  0  0  0
  9 11  1  0  0  0  0
  9 15  1  0  0  0  0
 12 13  1  0  0  0  0
 12 14  1  0  0  0  0
 15 16  1  0  0  0  0
 15 17  1  0  0  0  0
 18 19  1  0  0  0  0
 18 20  1  0  0  0  0
 18 25  1  0  0  0  0
 21 28  1  0  0  0  0
 22 23  1  0  0  0  0
 22 24  1  0  0  0  0
 22 46  1  0  0  0  0
 25 26  1  0  0  0  0
 25 27  1  0  0  0  0
 28 33  2  0  0  0  0
 28 57  1  0  0  0  0
 29 34  2  0  0  0  0
 29 39  1  0  0  0  0
 29 54  1  0  0  0  0
 30 31  1  0  0  0  0
 30 32  1  0  0  0  0
 30 49  1  0  0  0  0
 35 36  1  0  0  0  0
 35 61  1  0  0  0  0
 35 75  1  0  0  0  0
 36 37  1  0  0  0  0
 36 38  1  0  0  0  0
 36 39  1  0  0  0  0
 39 40  1  0  0  0  0
 39 41  1  0  0  0  0
 42 43  1  0  0  0  0
 42 44  1  0  0  0  0
 42 45  1  0  0  0  0
 46 47  1  0  0  0  0
 46 48  1  0  0  0  0
 46 49  1  0  0  0  0
 49 55  1  0  0  0  0
 49 76  1  0  0  0  0
 50 51  1  0  0  0  0
 50 52  1  0  0  0  0
 50 53  1  0  0  0  0
 54 65  1  0  0  0  0
 55 56  1  0  0  0  0
 57 58  1  0  0  0  0
 57 59  1  0  0  0  0
 57 60  1  0  0  0  0
 61 62  1  0  0  0  0
 61 63  1  0  0  0  0
 61 64  1  0  0  0  0
 65 66  1  0  0  0  0
 65 67  1  0  0  0  0
 65 68  1  0  0  0  0
M  END
>  <IDNUMBER>
AO-774/41465534

>  <NAME>
3,7-Dihydroxycholan-24-oic acid, Derivative of

>  <ADD_INFO>
http://www.specs.net/enter.php?specsid=AO-774/41465534

>  <H_ACCEPTORS>
5

>  <H_DONORS>
1

>  <ROTATABLE_BONDS>
7

>  <LOGP>
5.9400001

>  <LOGS>
-7.0300002

>  <TPSA>
72.830002

>  <PRICE>
N06

$$$$
AO-774/41465536
  MOE2011           3D

 73 76  0  0  1  0  0  0  0  0999 V2000
    1.9570   -0.0810    0.3580 C   0  0  0  0  0  0  0  0  0  0  0  0
   -0.9750   -0.0540    0.3910 C   0  0  2  0  0  0  0  0  0  0  0  0
    1.2320    1.2500    0.3500 C   0  0  2  0  0  0  0  0  0  0  0  0
   -2.3740   -0.2830   -0.3130 C   0  0  2  0  0  0  0  0  0  0  0  0
   -0.1550    1.0720   -0.3090 C   0  0  2  0  0  0  0  0  0  0  0  0
    3.0010   -0.0750   -0.4950 C   0  0  0  0  0  0  0  0  0  0  0  0
    1.2420   -1.0900    1.2190 C   0  0  1  0  0  0  0  0  0  0  0  0
   -0.1310   -1.3510    0.5620 C   0  0  0  0  0  0  0  0  0  0  0  0
   -0.6850   -2.0680    1.1770 H   0  0  0  0  0  0  0  0  0  0  0  0
    0.0370   -1.8280   -0.4120 H   0  0  0  0  0  0  0  0  0  0  0  0
   -3.0710    1.0920   -0.6410 C   0  0  1  0  0  0  0  0  0  0  0  0
    2.1900    2.1780   -0.3890 C   0  0  0  0  0  0  0  0  0  0  0  0
    1.6940    2.9120   -1.0320 H   0  0  0  0  0  0  0  0  0  0  0  0
    2.7830    2.7450    0.3410 H   0  0  0  0  0  0  0  0  0  0  0  0
    3.1120    1.2690   -1.1810 C   0  0  0  0  0  0  0  0  0  0  0  0
    4.1360    1.6580   -1.1660 H   0  0  0  0  0  0  0  0  0  0  0  0
    2.7820    1.1860   -2.2230 H   0  0  0  0  0  0  0  0  0  0  0  0
   -3.2870   -1.1270    0.6210 C   0  0  0  0  0  0  0  0  0  0  0  0
   -2.8350   -2.1020    0.8380 H   0  0  0  0  0  0  0  0  0  0  0  0
   -3.3770   -0.6150    1.5890 H   0  0  0  0  0  0  0  0  0  0  0  0
   -0.9200    2.4070   -0.3330 C   0  0  0  0  0  0  0  0  0  0  0  0
   -0.4600    3.1410    0.3400 H   0  0  0  0  0  0  0  0  0  0  0  0
   -0.8400    2.8350   -1.3410 H   0  0  0  0  0  0  0  0  0  0  0  0
   -7.2780    0.1490    0.7200 C   0  0  0  0  0  0  0  0  0  0  0  0
    6.3520    0.2140    0.5190 C   0  0  0  0  0  0  0  0  0  0  0  0
   -4.5770    1.1350   -0.2940 C   0  0  0  0  0  0  0  0  0  0  0  0
   -5.0560    1.9710   -0.8210 H   0  0  0  0  0  0  0  0  0  0  0  0
   -4.7040    1.3590    0.7710 H   0  0  0  0  0  0  0  0  0  0  0  0
   -2.3910    2.2870    0.0390 C   0  0  0  0  0  0  0  0  0  0  0  0
   -2.9010    3.2190   -0.2380 H   0  0  0  0  0  0  0  0  0  0  0  0
   -2.4860    2.2010    1.1290 H   0  0  0  0  0  0  0  0  0  0  0  0
    3.9720   -1.1230   -0.9930 C   0  0  3  0  0  0  0  0  0  0  0  0
   -6.7260   -0.0800   -0.5010 O   0  0  0  0  0  0  0  0  0  0  0  0
   -5.2890   -0.1670   -0.6450 C   0  0  2  0  0  0  0  0  0  0  0  0
   -6.6790    0.2850    1.7770 O   0  0  0  0  0  0  0  0  0  0  0  0
    6.9710    0.1240   -0.5320 O   0  0  0  0  0  0  0  0  0  0  0  0
    4.8870   -1.8010    0.0460 C   0  0  0  0  0  0  0  0  0  0  0  0
    4.3650   -2.6220    0.5430 H   0  0  0  0  0  0  0  0  0  0  0  0
    5.7140   -2.2820   -0.4940 H   0  0  0  0  0  0  0  0  0  0  0  0
   -4.6980   -1.3800    0.0770 C   0  0  0  0  0  0  0  0  0  0  0  0
   -5.3390   -1.7250    0.8960 H   0  0  0  0  0  0  0  0  0  0  0  0
   -4.6720   -2.2220   -0.6270 H   0  0  0  0  0  0  0  0  0  0  0  0
    5.4740   -0.8660    1.1060 C   0  0  0  0  0  0  0  0  0  0  0  0
    6.0930   -1.4460    1.8000 H   0  0  0  0  0  0  0  0  0  0  0  0
    4.6700   -0.4050    1.6880 H   0  0  0  0  0  0  0  0  0  0  0  0
   -2.1870   -1.0630   -1.6430 C   0  0  0  0  0  0  0  0  0  0  0  0
   -3.1100   -1.1060   -2.2290 H   0  0  0  0  0  0  0  0  0  0  0  0
   -1.8830   -2.0990   -1.4650 H   0  0  0  0  0  0  0  0  0  0  0  0
   -1.4340   -0.5960   -2.2840 H   0  0  0  0  0  0  0  0  0  0  0  0
    6.3760    1.2900    1.3560 O   0  0  0  0  0  0  0  0  0  0  0  0
    1.9300   -2.4030    1.5620 C   0  0  0  0  0  0  0  0  0  0  0  0
    1.3040   -2.9890    2.2450 H   0  0  0  0  0  0  0  0  0  0  0  0
    2.8740   -2.2210    2.0830 H   0  0  0  0  0  0  0  0  0  0  0  0
    2.1080   -3.0260    0.6860 H   0  0  0  0  0  0  0  0  0  0  0  0
   -8.7700    0.2100    0.5910 C   0  0  0  0  0  0  0  0  0  0  0  0
   -9.1480   -0.7390    0.2000 H   0  0  0  0  0  0  0  0  0  0  0  0
   -9.0520    1.0370   -0.0660 H   0  0  0  0  0  0  0  0  0  0  0  0
   -9.2130    0.3810    1.5760 H   0  0  0  0  0  0  0  0  0  0  0  0
    3.2800   -2.1470   -1.8990 C   0  0  0  0  0  0  0  0  0  0  0  0
    4.0140   -2.8300   -2.3390 H   0  0  0  0  0  0  0  0  0  0  0  0
    2.7600   -1.6470   -2.7240 H   0  0  0  0  0  0  0  0  0  0  0  0
    2.5430   -2.7490   -1.3650 H   0  0  0  0  0  0  0  0  0  0  0  0
    7.1820    2.3760    0.8970 C   0  0  0  0  0  0  0  0  0  0  0  0
    7.1320    3.1750    1.6410 H   0  0  0  0  0  0  0  0  0  0  0  0
    6.7970    2.7620   -0.0530 H   0  0  0  0  0  0  0  0  0  0  0  0
    8.2250    2.0620    0.7930 H   0  0  0  0  0  0  0  0  0  0  0  0
   -1.1800    0.2960    1.4150 H   0  0  0  0  0  0  0  0  0  0  0  0
    0.0100    0.7720   -1.3530 H   0  0  0  0  0  0  0  0  0  0  0  0
    1.1060    1.6190    1.3770 H   0  0  0  0  0  0  0  0  0  0  0  0
   -2.9920    1.2650   -1.7240 H   0  0  0  0  0  0  0  0  0  0  0  0
    1.0600   -0.6070    2.1910 H   0  0  0  0  0  0  0  0  0  0  0  0
    4.6650   -0.5960   -1.6660 H   0  0  0  0  0  0  0  0  0  0  0  0
   -5.1510   -0.3240   -1.7210 H   0  0  0  0  0  0  0  0  0  0  0  0
  1  3  1  0  0  0  0
  1  6  2  0  0  0  0
  1  7  1  0  0  0  0
  2  4  1  0  0  0  0
  2  5  1  0  0  0  0
  2  8  1  0  0  0  0
  2 67  1  0  0  0  0
  3  5  1  0  0  0  0
  3 12  1  0  0  0  0
  3 69  1  0  0  0  0
  4 11  1  0  0  0  0
  4 18  1  0  0  0  0
  4 46  1  0  0  0  0
  5 21  1  0  0  0  0
  5 68  1  0  0  0  0
  6 15  1  0  0  0  0
  6 32  1  0  0  0  0
  7  8  1  0  0  0  0
  7 51  1  0  0  0  0
  7 71  1  0  0  0  0
  8  9  1  0  0  0  0
  8 10  1  0  0  0  0
 11 26  1  0  0  0  0
 11 29  1  0  0  0  0
 11 70  1  0  0  0  0
 12 13  1  0  0  0  0
 12 14  1  0  0  0  0
 12 15  1  0  0  0  0
 15 16  1  0  0  0  0
 15 17  1  0  0  0  0
 18 19  1  0  0  0  0
 18 20  1  0  0  0  0
 18 40  1  0  0  0  0
 21 22  1  0  0  0  0
 21 23  1  0  0  0  0
 21 29  1  0  0  0  0
 24 33  1  0  0  0  0
 24 35  2  0  0  0  0
 24 55  1  0  0  0  0
 25 36  2  0  0  0  0
 25 43  1  0  0  0  0
 25 50  1  0  0  0  0
 26 27  1  0  0  0  0
 26 28  1  0  0  0  0
 26 34  1  0  0  0  0
 29 30  1  0  0  0  0
 29 31  1  0  0  0  0
 32 37  1  0  0  0  0
 32 59  1  0  0  0  0
 32 72  1  0  0  0  0
 33 34  1  0  0  0  0
 34 40  1  0  0  0  0
 34 73  1  0  0  0  0
 37 38  1  0  0  0  0
 37 39  1  0  0  0  0
 37 43  1  0  0  0  0
 40 41  1  0  0  0  0
 40 42  1  0  0  0  0
 43 44  1  0  0  0  0
 43 45  1  0  0  0  0
 46 47  1  0  0  0  0
 46 48  1  0  0  0  0
 46 49  1  0  0  0  0
 50 63  1  0  0  0  0
 51 52  1  0  0  0  0
 51 53  1  0  0  0  0
 51 54  1  0  0  0  0
 55 56  1  0  0  0  0
 55 57  1  0  0  0  0
 55 58  1  0  0  0  0
 59 60  1  0  0  0  0
 59 61  1  0  0  0  0
 59 62  1  0  0  0  0
 63 64  1  0  0  0  0
 63 65  1  0  0  0  0
 63 66  1  0  0  0  0
M  END
>  <IDNUMBER>
AO-774/41465536

>  <NAME>
methyl 4-[3-(acetyloxy)-10,12-dimethylgon-13(17)-en-17-yl]pentanoate

>  <ADD_INFO>
http://www.specs.net/enter.php?specsid=AO-774/41465536

>  <H_ACCEPTORS>
4

>  <H_DONORS>
0

>  <ROTATABLE_BONDS>
7

>  <LOGP>
7.4899998

>  <LOGS>
-8.7299995

>  <TPSA>
52.599998

>  <PRICE>
N06

$$$$
AO-774/41465564
  MOE2011           3D

 65 67  0  0  1  0  0  0  0  0999 V2000
   -1.3440   -0.1580    0.0340 C   0  0  1  0  0  0  0  0  0  0  0  0
    0.0990    0.4240    0.0520 C   0  0  0  0  0  0  0  0  0  0  0  0
    1.2440   -0.3710   -0.1950 C   0  0  0  0  0  0  0  0  0  0  0  0
    2.5420    0.1870   -0.2620 C   0  0  0  0  0  0  0  0  0  0  0  0
    0.3130    1.8140    0.1860 C   0  0  0  0  0  0  0  0  0  0  0  0
    2.7470    1.5670   -0.1740 C   0  0  0  0  0  0  0  0  0  0  0  0
   -2.3980    0.8920    0.5490 C   0  0  2  0  0  0  0  0  0  0  0  0
    1.6150    2.3540    0.0910 C   0  0  0  0  0  0  0  0  0  0  0  0
    1.7310    3.4350    0.1750 H   0  0  0  0  0  0  0  0  0  0  0  0
   -1.6260   -0.5300   -1.4520 C   0  0  0  0  0  0  0  0  0  0  0  0
    1.0780   -1.7050   -0.6330 O   0  0  0  0  0  0  0  0  0  0  0  0
    3.6280   -0.6620   -0.5700 O   0  0  0  0  0  0  0  0  0  0  0  0
   -3.8940    0.4090    0.5010 C   0  0  0  0  0  0  0  0  0  0  0  0
   -2.1650    2.2840   -0.0430 C   0  0  0  0  0  0  0  0  0  0  0  0
   -2.2180    2.2690   -1.1360 H   0  0  0  0  0  0  0  0  0  0  0  0
   -2.9280    2.9930    0.2950 H   0  0  0  0  0  0  0  0  0  0  0  0
    1.3700   -2.7160    0.2750 C   0  0  0  0  0  0  0  0  0  0  0  0
    4.2990   -1.4270    0.3830 C   0  0  0  0  0  0  0  0  0  0  0  0
   -0.8080    2.7990    0.4080 C   0  0  0  0  0  0  0  0  0  0  0  0
   -0.8400    3.0420    1.4780 H   0  0  0  0  0  0  0  0  0  0  0  0
   -0.6020    3.7330   -0.1300 H   0  0  0  0  0  0  0  0  0  0  0  0
   -1.5540    0.2660   -2.3830 O   0  0  0  0  0  0  0  0  0  0  0  0
    1.6560   -2.5710    1.4550 O   0  0  0  0  0  0  0  0  0  0  0  0
    5.0430   -2.3420    0.0360 O   0  0  0  0  0  0  0  0  0  0  0  0
    4.0560    2.2870   -0.4590 C   0  0  0  0  0  0  0  0  0  0  0  0
    3.8690    3.3660   -0.3630 H   0  0  0  0  0  0  0  0  0  0  0  0
   -1.4550   -1.3750    1.0130 C   0  0  0  0  0  0  0  0  0  0  0  0
   -1.1630   -2.3080    0.5230 H   0  0  0  0  0  0  0  0  0  0  0  0
   -0.7540   -1.2480    1.8490 H   0  0  0  0  0  0  0  0  0  0  0  0
   -1.9410   -1.8450   -1.6120 O   0  0  0  0  0  0  0  0  0  0  0  0
   -3.9810   -1.1160    0.7590 C   0  0  0  0  0  0  0  0  0  0  0  0
   -4.9370   -1.3720    1.2330 H   0  0  0  0  0  0  0  0  0  0  0  0
   -3.9740   -1.6720   -0.1850 H   0  0  0  0  0  0  0  0  0  0  0  0
   -2.8400   -1.6120    1.6340 C   0  0  0  0  0  0  0  0  0  0  0  0
   -2.9650   -2.6830    1.8350 H   0  0  0  0  0  0  0  0  0  0  0  0
   -2.8870   -1.1160    2.6120 H   0  0  0  0  0  0  0  0  0  0  0  0
   -4.6850    1.1330    1.6220 C   0  0  0  0  0  0  0  0  0  0  0  0
   -5.7320    0.8100    1.6390 H   0  0  0  0  0  0  0  0  0  0  0  0
   -4.6850    2.2190    1.4810 H   0  0  0  0  0  0  0  0  0  0  0  0
   -4.2620    0.9240    2.6100 H   0  0  0  0  0  0  0  0  0  0  0  0
   -4.6140    0.7280   -0.8250 C   0  0  0  0  0  0  0  0  0  0  0  0
   -5.6480    0.3610   -0.8020 H   0  0  0  0  0  0  0  0  0  0  0  0
   -4.1300    0.2590   -1.6840 H   0  0  0  0  0  0  0  0  0  0  0  0
   -4.6620    1.8060   -1.0130 H   0  0  0  0  0  0  0  0  0  0  0  0
    4.1460   -1.0370    1.8290 C   0  0  0  0  0  0  0  0  0  0  0  0
    3.2140   -0.5180    2.0470 H   0  0  0  0  0  0  0  0  0  0  0  0
    4.9890   -0.4120    2.1300 H   0  0  0  0  0  0  0  0  0  0  0  0
    4.1520   -1.9490    2.4350 H   0  0  0  0  0  0  0  0  0  0  0  0
    1.2630   -4.0400   -0.4200 C   0  0  0  0  0  0  0  0  0  0  0  0
    2.0290   -4.1120   -1.1960 H   0  0  0  0  0  0  0  0  0  0  0  0
    0.2650   -4.1560   -0.8500 H   0  0  0  0  0  0  0  0  0  0  0  0
    1.4220   -4.8420    0.3060 H   0  0  0  0  0  0  0  0  0  0  0  0
    5.1750    1.9800    0.5330 C   0  0  0  0  0  0  0  0  0  0  0  0
    5.6070    0.9900    0.3680 H   0  0  0  0  0  0  0  0  0  0  0  0
    4.8180    2.0410    1.5660 H   0  0  0  0  0  0  0  0  0  0  0  0
    5.9910    2.7020    0.4180 H   0  0  0  0  0  0  0  0  0  0  0  0
    4.5250    2.0720   -1.9020 C   0  0  0  0  0  0  0  0  0  0  0  0
    4.8230    1.0360   -2.0900 H   0  0  0  0  0  0  0  0  0  0  0  0
    5.3900    2.7070   -2.1220 H   0  0  0  0  0  0  0  0  0  0  0  0
    3.7320    2.3270   -2.6140 H   0  0  0  0  0  0  0  0  0  0  0  0
   -2.1920   -2.2420   -2.9620 C   0  0  0  0  0  0  0  0  0  0  0  0
   -2.4240   -3.3100   -2.9620 H   0  0  0  0  0  0  0  0  0  0  0  0
   -1.3030   -2.0790   -3.5790 H   0  0  0  0  0  0  0  0  0  0  0  0
   -3.0520   -1.6990   -3.3650 H   0  0  0  0  0  0  0  0  0  0  0  0
   -2.1710    1.0130    1.6230 H   0  0  0  0  0  0  0  0  0  0  0  0
  1  2  1  0  0  0  0
  1  7  1  0  0  0  0
  1 10  1  0  0  0  0
  1 27  1  0  0  0  0
  2  3  2  0  0  0  0
  2  5  1  0  0  0  0
  3  4  1  0  0  0  0
  3 11  1  0  0  0  0
  4  6  2  0  0  0  0
  4 12  1  0  0  0  0
  5  8  2  0  0  0  0
  5 19  1  0  0  0  0
  6  8  1  0  0  0  0
  6 25  1  0  0  0  0
  7 13  1  0  0  0  0
  7 14  1  0  0  0  0
  7 65  1  0  0  0  0
  8  9  1  0  0  0  0
 10 22  2  0  0  0  0
 10 30  1  0  0  0  0
 11 17  1  0  0  0  0
 12 18  1  0  0  0  0
 13 31  1  0  0  0  0
 13 37  1  0  0  0  0
 13 41  1  0  0  0  0
 14 15  1  0  0  0  0
 14 16  1  0  0  0  0
 14 19  1  0  0  0  0
 17 23  2  0  0  0  0
 17 49  1  0  0  0  0
 18 24  2  0  0  0  0
 18 45  1  0  0  0  0
 19 20  1  0  0  0  0
 19 21  1  0  0  0  0
 25 26  1  0  0  0  0
 25 53  1  0  0  0  0
 25 57  1  0  0  0  0
 27 28  1  0  0  0  0
 27 29  1  0  0  0  0
 27 34  1  0  0  0  0
 30 61  1  0  0  0  0
 31 32  1  0  0  0  0
 31 33  1  0  0  0  0
 31 34  1  0  0  0  0
 34 35  1  0  0  0  0
 34 36  1  0  0  0  0
 37 38  1  0  0  0  0
 37 39  1  0  0  0  0
 37 40  1  0  0  0  0
 41 42  1  0  0  0  0
 41 43  1  0  0  0  0
 41 44  1  0  0  0  0
 45 46  1  0  0  0  0
 45 47  1  0  0  0  0
 45 48  1  0  0  0  0
 49 50  1  0  0  0  0
 49 51  1  0  0  0  0
 49 52  1  0  0  0  0
 53 54  1  0  0  0  0
 53 55  1  0  0  0  0
 53 56  1  0  0  0  0
 57 58  1  0  0  0  0
 57 59  1  0  0  0  0
 57 60  1  0  0  0  0
 61 62  1  0  0  0  0
 61 63  1  0  0  0  0
 61 64  1  0  0  0  0
M  END
>  <IDNUMBER>
AO-774/41465564

>  <NAME>
methyl 11,12-bis(acetyloxy)abieta-9(11),8(14),12-trien-20-oate

>  <ADD_INFO>
http://www.specs.net/enter.php?specsid=AO-774/41465564

>  <H_ACCEPTORS>
4

>  <H_DONORS>
0

>  <ROTATABLE_BONDS>
7

>  <LOGP>
6.6799998

>  <LOGS>
-8.04

>  <TPSA>
78.900002

>  <PRICE>
N06

$$$$
AO-774/41465568
  MOE2011           3D

 70 74  0  0  1  0  0  0  0  0999 V2000
    0.3520    1.0560    0.8490 C   0  0  2  0  0  0  0  0  0  0  0  0
   -3.6590   -0.7510    0.0870 C   0  0  2  0  0  0  0  0  0  0  0  0
   -1.0570    0.3840    0.6220 C   0  0  3  0  0  0  0  0  0  0  0  0
   -3.2460    0.4920   -0.7180 C   0  0  2  0  0  0  0  0  0  0  0  0
   -2.0910    1.3160   -0.1080 C   0  0  3  0  0  0  0  0  0  0  0  0
    0.8440    1.7520   -0.4460 C   0  0  2  0  0  0  0  0  0  0  0  0
   -2.4570   -1.7220    0.1090 C   0  0  0  0  0  0  0  0  0  0  0  0
   -2.4750   -2.3140    1.0330 H   0  0  0  0  0  0  0  0  0  0  0  0
   -2.5310   -2.4550   -0.7050 H   0  0  0  0  0  0  0  0  0  0  0  0
   -1.0760   -1.0260   -0.0130 C   0  0  0  0  0  0  0  0  0  0  0  0
   -0.7900   -0.9560   -1.0690 H   0  0  0  0  0  0  0  0  0  0  0  0
   -0.3530   -1.6940    0.4630 H   0  0  0  0  0  0  0  0  0  0  0  0
    1.4310    0.0270    1.2820 C   0  0  0  0  0  0  0  0  0  0  0  0
    1.1390   -0.4570    2.2220 H   0  0  0  0  0  0  0  0  0  0  0  0
    1.5120   -0.7650    0.5310 H   0  0  0  0  0  0  0  0  0  0  0  0
   -1.4880    2.1700   -1.2440 C   0  0  0  0  0  0  0  0  0  0  0  0
   -1.3450    1.5500   -2.1390 H   0  0  0  0  0  0  0  0  0  0  0  0
   -2.2000    2.9530   -1.5300 H   0  0  0  0  0  0  0  0  0  0  0  0
   -4.5610    1.2120   -1.0060 C   0  0  0  0  0  0  0  0  0  0  0  0
   -4.8480    1.8710   -0.1800 H   0  0  0  0  0  0  0  0  0  0  0  0
   -4.5020    1.8240   -1.9130 H   0  0  0  0  0  0  0  0  0  0  0  0
   -4.8430   -1.2340   -0.8020 C   0  0  2  0  0  0  0  0  0  0  0  0
    2.2510    2.3650   -0.3030 C   0  0  0  0  0  0  0  0  0  0  0  0
    2.2300    3.2150    0.3890 H   0  0  0  0  0  0  0  0  0  0  0  0
    2.5590    2.7630   -1.2790 H   0  0  0  0  0  0  0  0  0  0  0  0
   -0.1500    2.8110   -0.9250 C   0  0  0  0  0  0  0  0  0  0  0  0
   -0.2760    3.6090   -0.1860 H   0  0  0  0  0  0  0  0  0  0  0  0
    0.2310    3.2950   -1.8330 H   0  0  0  0  0  0  0  0  0  0  0  0
    4.7010   -0.3550   -0.8600 C   0  0  3  0  0  0  0  0  0  0  0  0
    5.6280    0.0060    0.1600 O   0  0  0  0  0  0  0  0  0  0  0  0
   -5.5870    0.0750   -1.1640 C   0  0  0  0  0  0  0  0  0  0  0  0
   -5.9610    0.0260   -2.1930 H   0  0  0  0  0  0  0  0  0  0  0  0
   -6.4480    0.2660   -0.5160 H   0  0  0  0  0  0  0  0  0  0  0  0
    3.5000    0.4220   -0.9070 O   0  0  0  0  0  0  0  0  0  0  0  0
    3.2980    1.3460    0.1680 C   0  0  3  0  0  0  0  0  0  0  0  0
    2.8310    0.6320    1.4410 C   0  0  0  0  0  0  0  0  0  0  0  0
    3.5220   -0.1750    1.7060 H   0  0  0  0  0  0  0  0  0  0  0  0
    2.8440    1.3350    2.2810 H   0  0  0  0  0  0  0  0  0  0  0  0
    0.1740    2.0770    2.0150 C   0  0  0  0  0  0  0  0  0  0  0  0
    1.0650    2.6850    2.1890 H   0  0  0  0  0  0  0  0  0  0  0  0
   -0.0440    1.5540    2.9540 H   0  0  0  0  0  0  0  0  0  0  0  0
   -0.6550    2.7690    1.8410 H   0  0  0  0  0  0  0  0  0  0  0  0
   -4.1300   -0.4320    1.5250 C   0  0  0  0  0  0  0  0  0  0  0  0
   -3.3840    0.0970    2.1180 H   0  0  0  0  0  0  0  0  0  0  0  0
   -4.3650   -1.3540    2.0700 H   0  0  0  0  0  0  0  0  0  0  0  0
   -5.0280    0.1930    1.5390 H   0  0  0  0  0  0  0  0  0  0  0  0
   -6.5750   -1.8850    0.8060 O   0  0  0  0  0  0  0  0  0  0  0  0
   -7.1140   -2.6410    1.0930 H   0  0  0  0  0  0  0  0  0  0  0  0
   -5.7420   -2.3400   -0.2480 C   0  0  0  0  0  0  0  0  0  0  0  0
   -5.1390   -3.1770    0.1180 H   0  0  0  0  0  0  0  0  0  0  0  0
   -6.3950   -2.7120   -1.0460 H   0  0  0  0  0  0  0  0  0  0  0  0
    6.9020   -0.6180    0.0000 C   0  0  0  0  0  0  0  0  0  0  0  0
    7.5240    0.0050   -0.6530 H   0  0  0  0  0  0  0  0  0  0  0  0
    7.3760   -0.6210    0.9870 H   0  0  0  0  0  0  0  0  0  0  0  0
    4.3290   -1.8360   -0.7250 C   0  0  0  0  0  0  0  0  0  0  0  0
    3.4680   -1.9670   -0.0600 H   0  0  0  0  0  0  0  0  0  0  0  0
    3.9940   -2.2050   -1.7020 H   0  0  0  0  0  0  0  0  0  0  0  0
    6.8220   -2.0440   -0.5420 C   0  0  0  0  0  0  0  0  0  0  0  0
    6.9350   -2.0200   -1.6340 H   0  0  0  0  0  0  0  0  0  0  0  0
    7.6580   -2.6410   -0.1600 H   0  0  0  0  0  0  0  0  0  0  0  0
    5.4860   -2.6840   -0.2020 C   0  0  0  0  0  0  0  0  0  0  0  0
    5.4020   -2.7770    0.8880 H   0  0  0  0  0  0  0  0  0  0  0  0
    5.4250   -3.6980   -0.6110 H   0  0  0  0  0  0  0  0  0  0  0  0
   -2.8930    0.1270   -1.6970 H   0  0  0  0  0  0  0  0  0  0  0  0
    0.9100    0.9870   -1.2330 H   0  0  0  0  0  0  0  0  0  0  0  0
   -1.4340    0.2130    1.6370 H   0  0  0  0  0  0  0  0  0  0  0  0
   -2.4980    2.0050    0.6430 H   0  0  0  0  0  0  0  0  0  0  0  0
   -4.4170   -1.6310   -1.7360 H   0  0  0  0  0  0  0  0  0  0  0  0
    5.1850   -0.1940   -1.8320 H   0  0  0  0  0  0  0  0  0  0  0  0
    4.2270    1.8980    0.3550 H   0  0  0  0  0  0  0  0  0  0  0  0
  1  3  1  0  0  0  0
  1  6  1  0  0  0  0
  1 13  1  0  0  0  0
  1 39  1  0  0  0  0
  2  4  1  0  0  0  0
  2  7  1  0  0  0  0
  2 22  1  0  0  0  0
  2 43  1  0  0  0  0
  3  5  1  0  0  0  0
  3 10  1  0  0  0  0
  3 66  1  0  0  0  0
  4  5  1  0  0  0  0
  4 19  1  0  0  0  0
  4 64  1  0  0  0  0
  5 16  1  0  0  0  0
  5 67  1  0  0  0  0
  6 23  1  0  0  0  0
  6 26  1  0  0  0  0
  6 65  1  0  0  0  0
  7  8  1  0  0  0  0
  7  9  1  0  0  0  0
  7 10  1  0  0  0  0
 10 11  1  0  0  0  0
 10 12  1  0  0  0  0
 13 14  1  0  0  0  0
 13 15  1  0  0  0  0
 13 36  1  0  0  0  0
 16 17  1  0  0  0  0
 16 18  1  0  0  0  0
 16 26  1  0  0  0  0
 19 20  1  0  0  0  0
 19 21  1  0  0  0  0
 19 31  1  0  0  0  0
 22 31  1  0  0  0  0
 22 49  1  0  0  0  0
 22 68  1  0  0  0  0
 23 24  1  0  0  0  0
 23 25  1  0  0  0  0
 23 35  1  0  0  0  0
 26 27  1  0  0  0  0
 26 28  1  0  0  0  0
 29 30  1  0  0  0  0
 29 34  1  0  0  0  0
 29 55  1  0  0  0  0
 29 69  1  0  0  0  0
 30 52  1  0  0  0  0
 31 32  1  0  0  0  0
 31 33  1  0  0  0  0
 34 35  1  0  0  0  0
 35 36  1  0  0  0  0
 35 70  1  0  0  0  0
 36 37  1  0  0  0  0
 36 38  1  0  0  0  0
 39 40  1  0  0  0  0
 39 41  1  0  0  0  0
 39 42  1  0  0  0  0
 43 44  1  0  0  0  0
 43 45  1  0  0  0  0
 43 46  1  0  0  0  0
 47 48  1  0  0  0  0
 47 49  1  0  0  0  0
 49 50  1  0  0  0  0
 49 51  1  0  0  0  0
 52 53  1  0  0  0  0
 52 54  1  0  0  0  0
 52 58  1  0  0  0  0
 55 56  1  0  0  0  0
 55 57  1  0  0  0  0
 55 61  1  0  0  0  0
 58 59  1  0  0  0  0
 58 60  1  0  0  0  0
 58 61  1  0  0  0  0
 61 62  1  0  0  0  0
 61 63  1  0  0  0  0
M  END
>  <IDNUMBER>
AO-774/41465568

>  <NAME>
[3-(tetrahydro-2H-pyran-2-yloxy)androstan-17-yl]methanol

>  <ADD_INFO>
http://www.specs.net/enter.php?specsid=AO-774/41465568

>  <H_ACCEPTORS>
3

>  <H_DONORS>
1

>  <ROTATABLE_BONDS>
3

>  <LOGP>
5.79

>  <LOGS>
-6.4899998

>  <TPSA>
38.689999

>  <PRICE>
N06

$$$$
AO-774/41465569
  MOE2011           3D

 69 73  0  0  1  0  0  0  0  0999 V2000
    0.0400   -0.6220    0.8010 C   0  0  2  0  0  0  0  0  0  0  0  0
   -4.2850   -0.3450   -0.2200 C   0  0  2  0  0  0  0  0  0  0  0  0
   -1.4890   -0.5670    0.4260 C   0  0  3  0  0  0  0  0  0  0  0  0
   -3.4640    0.9570   -0.2020 C   0  0  2  0  0  0  0  0  0  0  0  0
   -2.1060    0.8760    0.5350 C   0  0  3  0  0  0  0  0  0  0  0  0
    0.8120    0.4620    0.0050 C   0  0  2  0  0  0  0  0  0  0  0  0
   -3.4620   -1.4090   -0.9880 C   0  0  0  0  0  0  0  0  0  0  0  0
   -3.6890   -2.4090   -0.5960 H   0  0  0  0  0  0  0  0  0  0  0  0
   -3.7500   -1.4360   -2.0460 H   0  0  0  0  0  0  0  0  0  0  0  0
   -1.9250   -1.1840   -0.9250 C   0  0  0  0  0  0  0  0  0  0  0  0
   -1.6200   -0.5240   -1.7470 H   0  0  0  0  0  0  0  0  0  0  0  0
   -1.4520   -2.1460   -1.1310 H   0  0  0  0  0  0  0  0  0  0  0  0
    0.6650   -2.0370    0.5670 C   0  0  0  0  0  0  0  0  0  0  0  0
    0.9050   -2.5040    1.5330 H   0  0  0  0  0  0  0  0  0  0  0  0
   -0.0360   -2.7390    0.1120 H   0  0  0  0  0  0  0  0  0  0  0  0
   -1.1990    1.9770   -0.0630 C   0  0  0  0  0  0  0  0  0  0  0  0
   -1.2680    1.9610   -1.1590 H   0  0  0  0  0  0  0  0  0  0  0  0
   -1.5700    2.9620    0.2470 H   0  0  0  0  0  0  0  0  0  0  0  0
   -4.4580    2.0310    0.2310 C   0  0  0  0  0  0  0  0  0  0  0  0
   -4.5410    2.0830    1.3230 H   0  0  0  0  0  0  0  0  0  0  0  0
   -4.1690    3.0250   -0.1270 H   0  0  0  0  0  0  0  0  0  0  0  0
   -5.5360    0.1780   -0.9920 C   0  0  2  0  0  0  0  0  0  0  0  0
    2.3350    0.4290    0.2260 C   0  0  0  0  0  0  0  0  0  0  0  0
    2.5920    0.9470    1.1590 H   0  0  0  0  0  0  0  0  0  0  0  0
    2.8100    1.0120   -0.5730 H   0  0  0  0  0  0  0  0  0  0  0  0
    0.2750    1.8700    0.2850 C   0  0  0  0  0  0  0  0  0  0  0  0
    0.4370    2.1610    1.3280 H   0  0  0  0  0  0  0  0  0  0  0  0
    0.8300    2.6010   -0.3180 H   0  0  0  0  0  0  0  0  0  0  0  0
    5.3030   -0.6540    0.1970 C   0  0  3  0  0  0  0  0  0  0  0  0
    5.2950    0.7380    0.5250 O   0  0  0  0  0  0  0  0  0  0  0  0
   -5.7980    1.5790   -0.3870 C   0  0  0  0  0  0  0  0  0  0  0  0
   -6.1220    2.2750   -1.1680 H   0  0  0  0  0  0  0  0  0  0  0  0
   -6.5650    1.5850    0.3910 H   0  0  0  0  0  0  0  0  0  0  0  0
    4.1250   -1.0660   -0.5020 O   0  0  0  0  0  0  0  0  0  0  0  0
    2.9310   -0.9840    0.2810 C   0  0  3  0  0  0  0  0  0  0  0  0
    1.9500   -2.0220   -0.2590 C   0  0  0  0  0  0  0  0  0  0  0  0
    1.7280   -1.8280   -1.3160 H   0  0  0  0  0  0  0  0  0  0  0  0
    2.4140   -3.0160   -0.2380 H   0  0  0  0  0  0  0  0  0  0  0  0
    0.1540   -0.3570    2.3350 C   0  0  0  0  0  0  0  0  0  0  0  0
    1.1970   -0.3580    2.6690 H   0  0  0  0  0  0  0  0  0  0  0  0
   -0.3680   -1.1380    2.9030 H   0  0  0  0  0  0  0  0  0  0  0  0
   -0.2870    0.5950    2.6410 H   0  0  0  0  0  0  0  0  0  0  0  0
   -4.6690   -0.8510    1.1870 C   0  0  0  0  0  0  0  0  0  0  0  0
   -3.8140   -0.9930    1.8480 H   0  0  0  0  0  0  0  0  0  0  0  0
   -5.1780   -1.8180    1.1260 H   0  0  0  0  0  0  0  0  0  0  0  0
   -5.3320   -0.1560    1.7120 H   0  0  0  0  0  0  0  0  0  0  0  0
   -8.1720   -0.9520    0.3410 I   0  0  0  0  0  0  0  0  0  0  0  0
   -6.7320   -0.7580   -1.2130 C   0  0  0  0  0  0  0  0  0  0  0  0
   -6.3630   -1.7540   -1.4820 H   0  0  0  0  0  0  0  0  0  0  0  0
   -7.2770   -0.3960   -2.0940 H   0  0  0  0  0  0  0  0  0  0  0  0
    5.8180    1.5560   -0.5150 C   0  0  0  0  0  0  0  0  0  0  0  0
    5.2870    1.3480   -1.4520 H   0  0  0  0  0  0  0  0  0  0  0  0
    5.6270    2.6040   -0.2610 H   0  0  0  0  0  0  0  0  0  0  0  0
    6.5160   -1.0530   -0.6590 C   0  0  0  0  0  0  0  0  0  0  0  0
    6.7770   -2.1000   -0.4640 H   0  0  0  0  0  0  0  0  0  0  0  0
    6.2560   -1.0100   -1.7250 H   0  0  0  0  0  0  0  0  0  0  0  0
    7.3180    1.3190   -0.6600 C   0  0  0  0  0  0  0  0  0  0  0  0
    7.6370    1.6270   -1.6620 H   0  0  0  0  0  0  0  0  0  0  0  0
    7.8640    1.9540    0.0470 H   0  0  0  0  0  0  0  0  0  0  0  0
    7.6990   -0.1370   -0.3930 C   0  0  0  0  0  0  0  0  0  0  0  0
    8.0110   -0.2460    0.6530 H   0  0  0  0  0  0  0  0  0  0  0  0
    8.5580   -0.4210   -1.0100 H   0  0  0  0  0  0  0  0  0  0  0  0
   -3.2350    1.1910   -1.2550 H   0  0  0  0  0  0  0  0  0  0  0  0
    0.6490    0.2660   -1.0650 H   0  0  0  0  0  0  0  0  0  0  0  0
   -1.9630   -1.2000    1.1840 H   0  0  0  0  0  0  0  0  0  0  0  0
   -2.2590    1.0970    1.5980 H   0  0  0  0  0  0  0  0  0  0  0  0
   -5.1820    0.3750   -2.0190 H   0  0  0  0  0  0  0  0  0  0  0  0
    5.3610   -1.2020    1.1450 H   0  0  0  0  0  0  0  0  0  0  0  0
    3.1580   -1.2480    1.3220 H   0  0  0  0  0  0  0  0  0  0  0  0
  1  3  1  0  0  0  0
  1  6  1  0  0  0  0
  1 13  1  0  0  0  0
  1 39  1  0  0  0  0
  2  4  1  0  0  0  0
  2  7  1  0  0  0  0
  2 22  1  0  0  0  0
  2 43  1  0  0  0  0
  3  5  1  0  0  0  0
  3 10  1  0  0  0  0
  3 65  1  0  0  0  0
  4  5  1  0  0  0  0
  4 19  1  0  0  0  0
  4 63  1  0  0  0  0
  5 16  1  0  0  0  0
  5 66  1  0  0  0  0
  6 23  1  0  0  0  0
  6 26  1  0  0  0  0
  6 64  1  0  0  0  0
  7  8  1  0  0  0  0
  7  9  1  0  0  0  0
  7 10  1  0  0  0  0
 10 11  1  0  0  0  0
 10 12  1  0  0  0  0
 13 14  1  0  0  0  0
 13 15  1  0  0  0  0
 13 36  1  0  0  0  0
 16 17  1  0  0  0  0
 16 18  1  0  0  0  0
 16 26  1  0  0  0  0
 19 20  1  0  0  0  0
 19 21  1  0  0  0  0
 19 31  1  0  0  0  0
 22 31  1  0  0  0  0
 22 48  1  0  0  0  0
 22 67  1  0  0  0  0
 23 24  1  0  0  0  0
 23 25  1  0  0  0  0
 23 35  1  0  0  0  0
 26 27  1  0  0  0  0
 26 28  1  0  0  0  0
 29 30  1  0  0  0  0
 29 34  1  0  0  0  0
 29 54  1  0  0  0  0
 29 68  1  0  0  0  0
 30 51  1  0  0  0  0
 31 32  1  0  0  0  0
 31 33  1  0  0  0  0
 34 35  1  0  0  0  0
 35 36  1  0  0  0  0
 35 69  1  0  0  0  0
 36 37  1  0  0  0  0
 36 38  1  0  0  0  0
 39 40  1  0  0  0  0
 39 41  1  0  0  0  0
 39 42  1  0  0  0  0
 43 44  1  0  0  0  0
 43 45  1  0  0  0  0
 43 46  1  0  0  0  0
 47 48  1  0  0  0  0
 48 49  1  0  0  0  0
 48 50  1  0  0  0  0
 51 52  1  0  0  0  0
 51 53  1  0  0  0  0
 51 57  1  0  0  0  0
 54 55  1  0  0  0  0
 54 56  1  0  0  0  0
 54 60  1  0  0  0  0
 57 58  1  0  0  0  0
 57 59  1  0  0  0  0
 57 60  1  0  0  0  0
 60 61  1  0  0  0  0
 60 62  1  0  0  0  0
M  END
>  <IDNUMBER>
AO-774/41465569

>  <NAME>
17-(iodomethyl)-3-(tetrahydro-2H-pyran-2-yloxy)androstane

>  <ADD_INFO>
http://www.specs.net/enter.php?specsid=AO-774/41465569

>  <H_ACCEPTORS>
2

>  <H_DONORS>
0

>  <ROTATABLE_BONDS>
3

>  <LOGP>
8.0200005

>  <LOGS>
-9.6899996

>  <TPSA>
18.459999

>  <PRICE>
N06

$$$$
AO-774/41465570
  MOE2011           3D

 84 89  0  0  1  0  0  0  0  0999 V2000
   -5.8890   -0.8920   -0.2740 C   0  0  1  0  0  0  0  0  0  0  0  0
   -1.5260    0.1240   -0.3310 C   0  0  2  0  0  0  0  0  0  0  0  0
   -5.2960    0.2020    0.6400 C   0  0  2  0  0  0  0  0  0  0  0  0
   -2.9960   -0.4180   -0.2670 C   0  0  3  0  0  0  0  0  0  0  0  0
   -3.8240   -0.0470    0.9970 C   0  0  3  0  0  0  0  0  0  0  0  0
   -7.3690   -0.4330   -0.3070 C   0  0  2  0  0  0  0  0  0  0  0  0
   -0.9350    0.7070    0.9620 C   0  0  2  0  0  0  0  0  0  0  0  0
   -5.1670   -0.8470   -1.6360 C   0  0  0  0  0  0  0  0  0  0  0  0
   -5.0480   -1.8620   -2.0360 H   0  0  0  0  0  0  0  0  0  0  0  0
   -5.7680   -0.3080   -2.3780 H   0  0  0  0  0  0  0  0  0  0  0  0
    9.0180   -0.1110   -0.7680 C   0  0  0  0  0  0  0  0  0  0  0  0
   -3.7820   -0.1750   -1.5810 C   0  0  0  0  0  0  0  0  0  0  0  0
   -3.9300    0.9030   -1.7220 H   0  0  0  0  0  0  0  0  0  0  0  0
   -3.2020   -0.5190   -2.4450 H   0  0  0  0  0  0  0  0  0  0  0  0
    2.9840    2.2880    0.0230 C   0  0  0  0  0  0  0  0  0  0  0  0
   -6.2900    0.3000    1.7930 C   0  0  0  0  0  0  0  0  0  0  0  0
   -6.0860   -0.4500    2.5660 H   0  0  0  0  0  0  0  0  0  0  0  0
   -6.2640    1.2830    2.2750 H   0  0  0  0  0  0  0  0  0  0  0  0
   -1.3600    1.4940   -1.2240 C   0  0  0  0  0  0  0  0  0  0  0  0
   -1.4840    1.2630   -2.2890 H   0  0  0  0  0  0  0  0  0  0  0  0
   -2.1570    2.1920   -0.9370 H   0  0  0  0  0  0  0  0  0  0  0  0
   -7.6530    0.0370    1.1400 C   0  0  0  0  0  0  0  0  0  0  0  0
   -8.2550    0.9530    1.1220 H   0  0  0  0  0  0  0  0  0  0  0  0
   -8.2110   -0.6960    1.7330 H   0  0  0  0  0  0  0  0  0  0  0  0
   -3.2410    1.1140    1.7860 C   0  0  0  0  0  0  0  0  0  0  0  0
   -3.3110    2.0460    1.2120 H   0  0  0  0  0  0  0  0  0  0  0  0
   -3.8170    1.2700    2.7060 H   0  0  0  0  0  0  0  0  0  0  0  0
   -8.3710   -1.4710   -0.8120 C   0  0  0  0  0  0  0  0  0  0  0  0
    7.8050    0.7030   -0.5090 C   0  0  0  0  0  0  0  0  0  0  0  0
    0.4640    1.2100    1.4500 C   0  0  0  0  0  0  0  0  0  0  0  0
    1.2780    0.4710    1.3630 H   0  0  0  0  0  0  0  0  0  0  0  0
    0.5160    1.5740    2.4830 H   0  0  0  0  0  0  0  0  0  0  0  0
   -1.7920    0.8450    2.1660 C   0  0  0  0  0  0  0  0  0  0  0  0
   -1.7190   -0.0520    2.7930 H   0  0  0  0  0  0  0  0  0  0  0  0
   -1.5080    1.7010    2.7910 H   0  0  0  0  0  0  0  0  0  0  0  0
    1.9480    3.0530    0.4760 O   0  0  0  0  0  0  0  0  0  0  0  0
    9.8950    0.3310   -1.5050 O   0  0  0  0  0  0  0  0  0  0  0  0
    2.8880    1.1550   -0.4250 O   0  0  0  0  0  0  0  0  0  0  0  0
    9.1880   -1.4500   -0.1530 C   0  0  0  0  0  0  0  0  0  0  0  0
    0.6190    2.5060    0.4630 C   0  0  3  0  0  0  0  0  0  0  0  0
   -9.1440   -2.0660   -0.0620 O   0  0  0  0  0  0  0  0  0  0  0  0
    4.2650    3.0840    0.1470 C   0  0  0  0  0  0  0  0  0  0  0  0
    4.2260    3.9110   -0.5720 H   0  0  0  0  0  0  0  0  0  0  0  0
    4.3120    3.5220    1.1510 H   0  0  0  0  0  0  0  0  0  0  0  0
    7.2750    1.4670   -1.5530 C   0  0  0  0  0  0  0  0  0  0  0  0
    7.7440    1.4580   -2.5340 H   0  0  0  0  0  0  0  0  0  0  0  0
    7.2080    0.7380    0.7560 C   0  0  0  0  0  0  0  0  0  0  0  0
    7.6230    0.1790    1.5910 H   0  0  0  0  0  0  0  0  0  0  0  0
    0.0390    2.2950   -1.0400 C   0  0  0  0  0  0  0  0  0  0  0  0
   -0.0600    3.2820   -1.5080 H   0  0  0  0  0  0  0  0  0  0  0  0
    0.7920    1.7660   -1.6360 H   0  0  0  0  0  0  0  0  0  0  0  0
   -5.7720   -2.3190    0.3200 C   0  0  0  0  0  0  0  0  0  0  0  0
   -4.7320   -2.6340    0.4410 H   0  0  0  0  0  0  0  0  0  0  0  0
   -6.2430   -3.0580   -0.3390 H   0  0  0  0  0  0  0  0  0  0  0  0
   -6.2550   -2.4070    1.2980 H   0  0  0  0  0  0  0  0  0  0  0  0
    5.5140    2.2660   -0.0810 C   0  0  0  0  0  0  0  0  0  0  0  0
   -0.6410   -0.9960   -0.9590 C   0  0  0  0  0  0  0  0  0  0  0  0
    0.3830   -0.6640   -1.1640 H   0  0  0  0  0  0  0  0  0  0  0  0
   -1.0570   -1.3390   -1.9120 H   0  0  0  0  0  0  0  0  0  0  0  0
   -0.5790   -1.8560   -0.2820 H   0  0  0  0  0  0  0  0  0  0  0  0
    6.1280    2.2370   -1.3410 C   0  0  0  0  0  0  0  0  0  0  0  0
    5.7180    2.8130   -2.1680 H   0  0  0  0  0  0  0  0  0  0  0  0
    6.0640    1.5110    0.9640 C   0  0  0  0  0  0  0  0  0  0  0  0
    5.6040    1.5200    1.9510 H   0  0  0  0  0  0  0  0  0  0  0  0
   -8.3700   -1.7610   -2.2910 C   0  0  0  0  0  0  0  0  0  0  0  0
   -7.5030   -2.3720   -2.5500 H   0  0  0  0  0  0  0  0  0  0  0  0
   -8.3570   -0.8250   -2.8540 H   0  0  0  0  0  0  0  0  0  0  0  0
   -9.2810   -2.3060   -2.5560 H   0  0  0  0  0  0  0  0  0  0  0  0
    8.0990   -2.3060    0.0480 C   0  0  0  0  0  0  0  0  0  0  0  0
    7.0930   -2.0210   -0.2500 H   0  0  0  0  0  0  0  0  0  0  0  0
   10.4790   -1.8660    0.1940 C   0  0  0  0  0  0  0  0  0  0  0  0
   11.3330   -1.2160    0.0200 H   0  0  0  0  0  0  0  0  0  0  0  0
    8.3000   -3.5610    0.6250 C   0  0  0  0  0  0  0  0  0  0  0  0
    7.4550   -4.2260    0.7850 H   0  0  0  0  0  0  0  0  0  0  0  0
   10.6730   -3.1210    0.7710 C   0  0  0  0  0  0  0  0  0  0  0  0
   11.6740   -3.4430    1.0470 H   0  0  0  0  0  0  0  0  0  0  0  0
    9.5840   -3.9650    0.9900 C   0  0  0  0  0  0  0  0  0  0  0  0
    9.7370   -4.9430    1.4380 H   0  0  0  0  0  0  0  0  0  0  0  0
   -5.3500    1.1680    0.1110 H   0  0  0  0  0  0  0  0  0  0  0  0
   -0.1540    0.7570    0.2480 H   0  0  0  0  0  0  0  0  0  0  0  0
   -2.9000   -1.5120   -0.2030 H   0  0  0  0  0  0  0  0  0  0  0  0
   -3.7820   -0.9160    1.6700 H   0  0  0  0  0  0  0  0  0  0  0  0
   -7.4750    0.4470   -0.9570 H   0  0  0  0  0  0  0  0  0  0  0  0
   -0.0180    3.2840    0.9060 H   0  0  0  0  0  0  0  0  0  0  0  0
  1  3  1  0  0  0  0
  1  6  1  0  0  0  0
  1  8  1  0  0  0  0
  1 52  1  0  0  0  0
  2  4  1  0  0  0  0
  2  7  1  0  0  0  0
  2 19  1  0  0  0  0
  2 57  1  0  0  0  0
  3  5  1  0  0  0  0
  3 16  1  0  0  0  0
  3 79  1  0  0  0  0
  4  5  1  0  0  0  0
  4 12  1  0  0  0  0
  4 81  1  0  0  0  0
  5 25  1  0  0  0  0
  5 82  1  0  0  0  0
  6 22  1  0  0  0  0
  6 28  1  0  0  0  0
  6 83  1  0  0  0  0
  7 30  1  0  0  0  0
  7 33  1  0  0  0  0
  7 80  1  0  0  0  0
  8  9  1  0  0  0  0
  8 10  1  0  0  0  0
  8 12  1  0  0  0  0
 11 29  1  0  0  0  0
 11 37  2  0  0  0  0
 11 39  1  0  0  0  0
 12 13  1  0  0  0  0
 12 14  1  0  0  0  0
 15 36  1  0  0  0  0
 15 38  2  0  0  0  0
 15 42  1  0  0  0  0
 16 17  1  0  0  0  0
 16 18  1  0  0  0  0
 16 22  1  0  0  0  0
 19 20  1  0  0  0  0
 19 21  1  0  0  0  0
 19 49  1  0  0  0  0
 22 23  1  0  0  0  0
 22 24  1  0  0  0  0
 25 26  1  0  0  0  0
 25 27  1  0  0  0  0
 25 33  1  0  0  0  0
 28 41  2  0  0  0  0
 28 65  1  0  0  0  0
 29 45  2  0  0  0  0
 29 47  1  0  0  0  0
 30 31  1  0  0  0  0
 30 32  1  0  0  0  0
 30 40  1  0  0  0  0
 33 34  1  0  0  0  0
 33 35  1  0  0  0  0
 36 40  1  0  0  0  0
 39 69  2  0  0  0  0
 39 71  1  0  0  0  0
 40 49  1  0  0  0  0
 40 84  1  0  0  0  0
 42 43  1  0  0  0  0
 42 44  1  0  0  0  0
 42 56  1  0  0  0  0
 45 46  1  0  0  0  0
 45 61  1  0  0  0  0
 47 48  1  0  0  0  0
 47 63  2  0  0  0  0
 49 50  1  0  0  0  0
 49 51  1  0  0  0  0
 52 53  1  0  0  0  0
 52 54  1  0  0  0  0
 52 55  1  0  0  0  0
 56 61  2  0  0  0  0
 56 63  1  0  0  0  0
 57 58  1  0  0  0  0
 57 59  1  0  0  0  0
 57 60  1  0  0  0  0
 61 62  1  0  0  0  0
 63 64  1  0  0  0  0
 65 66  1  0  0  0  0
 65 67  1  0  0  0  0
 65 68  1  0  0  0  0
 69 70  1  0  0  0  0
 69 73  1  0  0  0  0
 71 72  1  0  0  0  0
 71 75  2  0  0  0  0
 73 74  1  0  0  0  0
 73 77  2  0  0  0  0
 75 76  1  0  0  0  0
 75 77  1  0  0  0  0
 77 78  1  0  0  0  0
M  END
>  <IDNUMBER>
AO-774/41465570

>  <NAME>
3,6-Dihydroxypregnan-20-one, Derivative of

>  <ADD_INFO>
http://www.specs.net/enter.php?specsid=AO-774/41465570

>  <H_ACCEPTORS>
4

>  <H_DONORS>
0

>  <ROTATABLE_BONDS>
7

>  <LOGP>
7.8400002

>  <LOGS>
-9.8400002

>  <TPSA>
60.439999

>  <PRICE>
N06

$$$$
AO-774/41465571
  MOE2011           3D

 55 58  0  0  1  0  0  0  0  0999 V2000
   -1.6940    1.0920   -0.0860 C   0  0  0  0  0  0  0  0  0  0  0  0
   -2.5600   -0.1310    0.1590 C   0  0  1  0  0  0  0  0  0  0  0  0
    1.9670   -0.3180    0.2200 C   0  0  2  0  0  0  0  0  0  0  0  0
   -0.2420    1.0690    0.3390 C   0  0  1  0  0  0  0  0  0  0  0  0
    0.4440   -0.2270   -0.1800 C   0  0  2  0  0  0  0  0  0  0  0  0
   -2.3970    2.0790   -0.6610 C   0  0  0  0  0  0  0  0  0  0  0  0
   -2.0120    3.0580   -0.9110 H   0  0  0  0  0  0  0  0  0  0  0  0
   -3.7770    0.1690   -0.7630 C   0  0  2  0  0  0  0  0  0  0  0  0
    2.6800    0.9890   -0.2340 C   0  0  1  0  0  0  0  0  0  0  0  0
   -1.8140   -1.4010   -0.2960 C   0  0  0  0  0  0  0  0  0  0  0  0
   -2.3580   -2.2980    0.0220 H   0  0  0  0  0  0  0  0  0  0  0  0
   -1.7680   -1.4430   -1.3920 H   0  0  0  0  0  0  0  0  0  0  0  0
   -3.8220    1.6980   -0.8880 C   0  0  0  0  0  0  0  0  0  0  0  0
   -4.1570    1.9950   -1.8870 H   0  0  0  0  0  0  0  0  0  0  0  0
   -4.4650    2.1850   -0.1470 H   0  0  0  0  0  0  0  0  0  0  0  0
   -0.3780   -1.4720    0.2350 C   0  0  0  0  0  0  0  0  0  0  0  0
    0.0850   -2.3840   -0.1550 H   0  0  0  0  0  0  0  0  0  0  0  0
   -0.4040   -1.5740    1.3250 H   0  0  0  0  0  0  0  0  0  0  0  0
    2.6320   -1.5280   -0.5150 C   0  0  0  0  0  0  0  0  0  0  0  0
    2.6450   -2.4040    0.1470 H   0  0  0  0  0  0  0  0  0  0  0  0
    2.0330   -1.8270   -1.3840 H   0  0  0  0  0  0  0  0  0  0  0  0
    0.5400    2.3200   -0.0900 C   0  0  0  0  0  0  0  0  0  0  0  0
    0.4770    2.4470   -1.1790 H   0  0  0  0  0  0  0  0  0  0  0  0
    0.0960    3.2160    0.3610 H   0  0  0  0  0  0  0  0  0  0  0  0
   -5.1060   -0.4240   -0.3100 C   0  0  0  0  0  0  0  0  0  0  0  0
    2.0090    2.2550    0.3110 C   0  0  0  0  0  0  0  0  0  0  0  0
    2.0980    2.3030    1.4030 H   0  0  0  0  0  0  0  0  0  0  0  0
    2.5210    3.1430   -0.0800 H   0  0  0  0  0  0  0  0  0  0  0  0
    4.1880    0.9990    0.0760 C   0  0  0  0  0  0  0  0  0  0  0  0
    4.3660    1.3290    1.1080 H   0  0  0  0  0  0  0  0  0  0  0  0
    4.6730    1.7580   -0.5530 H   0  0  0  0  0  0  0  0  0  0  0  0
   -5.9770    0.2500    0.2400 O   0  0  0  0  0  0  0  0  0  0  0  0
   -2.9390   -0.2050    1.6500 C   0  0  0  0  0  0  0  0  0  0  0  0
   -3.5450   -1.0920    1.8640 H   0  0  0  0  0  0  0  0  0  0  0  0
   -3.5120    0.6740    1.9650 H   0  0  0  0  0  0  0  0  0  0  0  0
   -2.0560   -0.2590    2.2960 H   0  0  0  0  0  0  0  0  0  0  0  0
    4.0540   -1.2760   -1.0280 C   0  0  0  0  0  0  0  0  0  0  0  0
    4.0090   -0.8360   -2.0330 H   0  0  0  0  0  0  0  0  0  0  0  0
    4.5720   -2.2340   -1.1640 H   0  0  0  0  0  0  0  0  0  0  0  0
    4.8610   -0.3630   -0.1180 C   0  0  1  0  0  0  0  0  0  0  0  0
    2.1130   -0.5300    1.7510 C   0  0  0  0  0  0  0  0  0  0  0  0
    3.1580   -0.5510    2.0700 H   0  0  0  0  0  0  0  0  0  0  0  0
    1.6800   -1.4840    2.0680 H   0  0  0  0  0  0  0  0  0  0  0  0
    1.6230    0.2570    2.3290 H   0  0  0  0  0  0  0  0  0  0  0  0
    6.1600   -0.1570   -0.6670 O   0  0  0  0  0  0  0  0  0  0  0  0
    6.5730   -1.0300   -0.7760 H   0  0  0  0  0  0  0  0  0  0  0  0
   -5.3140   -1.8990   -0.5430 C   0  0  0  0  0  0  0  0  0  0  0  0
   -5.0210   -2.1600   -1.5630 H   0  0  0  0  0  0  0  0  0  0  0  0
   -6.3730   -2.1420   -0.4200 H   0  0  0  0  0  0  0  0  0  0  0  0
   -4.7320   -2.4770    0.1770 H   0  0  0  0  0  0  0  0  0  0  0  0
    0.4120   -0.1820   -1.2810 H   0  0  0  0  0  0  0  0  0  0  0  0
   -0.2430    1.0480    1.4370 H   0  0  0  0  0  0  0  0  0  0  0  0
    2.5890    1.0420   -1.3300 H   0  0  0  0  0  0  0  0  0  0  0  0
   -3.5950   -0.2230   -1.7750 H   0  0  0  0  0  0  0  0  0  0  0  0
    5.0030   -0.8470    0.8550 H   0  0  0  0  0  0  0  0  0  0  0  0
  1  2  1  0  0  0  0
  1  4  1  0  0  0  0
  1  6  2  0  0  0  0
  2  8  1  0  0  0  0
  2 10  1  0  0  0  0
  2 33  1  0  0  0  0
  3  5  1  0  0  0  0
  3  9  1  0  0  0  0
  3 19  1  0  0  0  0
  3 41  1  0  0  0  0
  4  5  1  0  0  0  0
  4 22  1  0  0  0  0
  4 52  1  0  0  0  0
  5 16  1  0  0  0  0
  5 51  1  0  0  0  0
  6  7  1  0  0  0  0
  6 13  1  0  0  0  0
  8 13  1  0  0  0  0
  8 25  1  0  0  0  0
  8 54  1  0  0  0  0
  9 26  1  0  0  0  0
  9 29  1  0  0  0  0
  9 53  1  0  0  0  0
 10 11  1  0  0  0  0
 10 12  1  0  0  0  0
 10 16  1  0  0  0  0
 13 14  1  0  0  0  0
 13 15  1  0  0  0  0
 16 17  1  0  0  0  0
 16 18  1  0  0  0  0
 19 20  1  0  0  0  0
 19 21  1  0  0  0  0
 19 37  1  0  0  0  0
 22 23  1  0  0  0  0
 22 24  1  0  0  0  0
 22 26  1  0  0  0  0
 25 32  2  0  0  0  0
 25 47  1  0  0  0  0
 26 27  1  0  0  0  0
 26 28  1  0  0  0  0
 29 30  1  0  0  0  0
 29 31  1  0  0  0  0
 29 40  1  0  0  0  0
 33 34  1  0  0  0  0
 33 35  1  0  0  0  0
 33 36  1  0  0  0  0
 37 38  1  0  0  0  0
 37 39  1  0  0  0  0
 37 40  1  0  0  0  0
 40 45  1  0  0  0  0
 40 55  1  0  0  0  0
 41 42  1  0  0  0  0
 41 43  1  0  0  0  0
 41 44  1  0  0  0  0
 45 46  1  0  0  0  0
 47 48  1  0  0  0  0
 47 49  1  0  0  0  0
 47 50  1  0  0  0  0
M  END
>  <IDNUMBER>
AO-774/41465571

>  <NAME>
3-Hydroxypregn-14-ene-20-one

>  <ADD_INFO>
http://www.specs.net/enter.php?specsid=AO-774/41465571

>  <H_ACCEPTORS>
2

>  <H_DONORS>
1

>  <ROTATABLE_BONDS>
1

>  <LOGP>
3.8900001

>  <LOGS>
-4.3200002

>  <TPSA>
37.299999

>  <PRICE>
N06

$$$$
AO-774/41465590
  MOE2011           3D

 73 77  0  0  1  0  0  0  0  0999 V2000
   -2.4580    0.4790    0.5340 C   0  0  1  0  0  0  0  0  0  0  0  0
   -1.5620    1.7750    0.5590 C   0  0  1  0  0  0  0  0  0  0  0  0
   -0.0970    1.5050    0.0980 C   0  0  3  0  0  0  0  0  0  0  0  0
    2.1000    0.1420    0.5630 C   0  0  2  0  0  0  0  0  0  0  0  0
    0.5950    0.4220    0.9870 C   0  0  3  0  0  0  0  0  0  0  0  0
   -0.3500   -0.8140    1.2130 C   0  0  1  0  0  0  0  0  0  0  0  0
   -3.4080    0.7190   -0.6910 C   0  0  1  0  0  0  0  0  0  0  0  0
   -1.6010   -0.7810    0.3250 C   0  0  0  0  0  0  0  0  0  0  0  0
   -1.2820   -0.8680   -0.7230 H   0  0  0  0  0  0  0  0  0  0  0  0
   -2.2020   -1.6830    0.4960 H   0  0  0  0  0  0  0  0  0  0  0  0
   -4.6430   -0.1550   -0.8160 C   0  0  0  0  0  0  0  0  0  0  0  0
    2.8810    1.4890    0.3960 C   0  0  2  0  0  0  0  0  0  0  0  0
   -2.2800    2.7950   -0.3590 C   0  0  0  0  0  0  0  0  0  0  0  0
   -2.3410    3.8000    0.0710 H   0  0  0  0  0  0  0  0  0  0  0  0
   -1.7720    2.8730   -1.3290 H   0  0  0  0  0  0  0  0  0  0  0  0
   -5.8860    0.2100   -0.4730 C   0  0  0  0  0  0  0  0  0  0  0  0
   -6.1770    1.1520   -0.0300 H   0  0  0  0  0  0  0  0  0  0  0  0
   -6.9030   -1.8360   -1.2090 C   0  0  0  0  0  0  0  0  0  0  0  0
   -4.4930   -1.4600   -1.4200 C   0  0  0  0  0  0  0  0  0  0  0  0
   -3.5060   -1.7870   -1.7330 H   0  0  0  0  0  0  0  0  0  0  0  0
   -7.0230   -0.5970   -0.6420 O   0  0  0  0  0  0  0  0  0  0  0  0
    0.7420    2.7940    0.0960 C   0  0  0  0  0  0  0  0  0  0  0  0
    0.2720    3.5650   -0.5220 H   0  0  0  0  0  0  0  0  0  0  0  0
    0.8200    3.2070    1.1090 H   0  0  0  0  0  0  0  0  0  0  0  0
    0.3060   -2.0740    0.9400 O   0  0  0  0  0  0  0  0  0  0  0  0
   -3.6690    2.2280   -0.6100 C   0  0  0  0  0  0  0  0  0  0  0  0
   -4.1020    2.6240   -1.5340 H   0  0  0  0  0  0  0  0  0  0  0  0
   -4.3330    2.4990    0.2180 H   0  0  0  0  0  0  0  0  0  0  0  0
    2.1730   -0.7140   -0.7350 C   0  0  0  0  0  0  0  0  0  0  0  0
    2.4000   -1.7560   -0.4740 H   0  0  0  0  0  0  0  0  0  0  0  0
    1.1980   -0.7470   -1.2340 H   0  0  0  0  0  0  0  0  0  0  0  0
   -5.5480   -2.2610   -1.6080 C   0  0  0  0  0  0  0  0  0  0  0  0
   -5.4560   -3.2400   -2.0610 H   0  0  0  0  0  0  0  0  0  0  0  0
    0.0560   -3.2350    1.5940 C   0  0  0  0  0  0  0  0  0  0  0  0
    6.0400   -1.7430   -1.1880 C   0  0  0  0  0  0  0  0  0  0  0  0
    2.1380    2.5390   -0.4420 C   0  0  0  0  0  0  0  0  0  0  0  0
    2.6940    3.4840   -0.4210 H   0  0  0  0  0  0  0  0  0  0  0  0
    2.0700    2.2510   -1.4940 H   0  0  0  0  0  0  0  0  0  0  0  0
    4.3220    1.3040   -0.1330 C   0  0  0  0  0  0  0  0  0  0  0  0
    4.9860    1.1020    0.7180 H   0  0  0  0  0  0  0  0  0  0  0  0
    4.6710    2.2600   -0.5460 H   0  0  0  0  0  0  0  0  0  0  0  0
    5.1760   -0.9080   -0.5650 O   0  0  0  0  0  0  0  0  0  0  0  0
   -7.8650   -2.5740   -1.3920 O   0  0  0  0  0  0  0  0  0  0  0  0
   -1.5170    2.2980    1.8900 O   0  0  0  0  0  0  0  0  0  0  0  0
   -1.2570    3.2340    1.8530 H   0  0  0  0  0  0  0  0  0  0  0  0
    4.5060    0.2140   -1.1980 C   0  0  1  0  0  0  0  0  0  0  0  0
    0.5880   -4.2840    1.2390 O   0  0  0  0  0  0  0  0  0  0  0  0
    6.5000   -2.7230   -0.6080 O   0  0  0  0  0  0  0  0  0  0  0  0
   -3.2740    0.3070    1.8420 C   0  0  0  0  0  0  0  0  0  0  0  0
   -3.8960   -0.5940    1.8100 H   0  0  0  0  0  0  0  0  0  0  0  0
   -3.9360    1.1600    2.0280 H   0  0  0  0  0  0  0  0  0  0  0  0
   -2.6240    0.2050    2.7170 H   0  0  0  0  0  0  0  0  0  0  0  0
    3.1920   -0.2730   -1.7890 C   0  0  0  0  0  0  0  0  0  0  0  0
    2.7590    0.5080   -2.4200 H   0  0  0  0  0  0  0  0  0  0  0  0
    3.3700   -1.1250   -2.4550 H   0  0  0  0  0  0  0  0  0  0  0  0
    2.7950   -0.6210    1.7330 C   0  0  0  0  0  0  0  0  0  0  0  0
    3.8590   -0.7820    1.5500 H   0  0  0  0  0  0  0  0  0  0  0  0
    2.3700   -1.6070    1.9190 H   0  0  0  0  0  0  0  0  0  0  0  0
    2.7140   -0.0540    2.6680 H   0  0  0  0  0  0  0  0  0  0  0  0
   -0.8590   -3.1830    2.7800 C   0  0  0  0  0  0  0  0  0  0  0  0
   -0.4160   -2.5760    3.5730 H   0  0  0  0  0  0  0  0  0  0  0  0
   -0.9880   -4.1970    3.1710 H   0  0  0  0  0  0  0  0  0  0  0  0
   -1.8480   -2.8150    2.4990 H   0  0  0  0  0  0  0  0  0  0  0  0
    6.4350   -1.4100   -2.5950 C   0  0  0  0  0  0  0  0  0  0  0  0
    6.9920   -0.4710   -2.6190 H   0  0  0  0  0  0  0  0  0  0  0  0
    5.5620   -1.3740   -3.2490 H   0  0  0  0  0  0  0  0  0  0  0  0
    7.0950   -2.1980   -2.9730 H   0  0  0  0  0  0  0  0  0  0  0  0
   -2.8240    0.5710   -1.6140 H   0  0  0  0  0  0  0  0  0  0  0  0
    2.9800    1.9400    1.3950 H   0  0  0  0  0  0  0  0  0  0  0  0
   -0.1320    1.1380   -0.9370 H   0  0  0  0  0  0  0  0  0  0  0  0
    0.6720    0.8860    1.9840 H   0  0  0  0  0  0  0  0  0  0  0  0
   -0.6440   -0.7850    2.2660 H   0  0  0  0  0  0  0  0  0  0  0  0
    5.1450    0.6240   -1.9870 H   0  0  0  0  0  0  0  0  0  0  0  0
  1  2  1  0  0  0  0
  1  7  1  0  0  0  0
  1  8  1  0  0  0  0
  1 49  1  0  0  0  0
  2  3  1  0  0  0  0
  2 13  1  0  0  0  0
  2 44  1  0  0  0  0
  3  5  1  0  0  0  0
  3 22  1  0  0  0  0
  3 70  1  0  0  0  0
  4  5  1  0  0  0  0
  4 12  1  0  0  0  0
  4 29  1  0  0  0  0
  4 56  1  0  0  0  0
  5  6  1  0  0  0  0
  5 71  1  0  0  0  0
  6  8  1  0  0  0  0
  6 25  1  0  0  0  0
  6 72  1  0  0  0  0
  7 11  1  0  0  0  0
  7 26  1  0  0  0  0
  7 68  1  0  0  0  0
  8  9  1  0  0  0  0
  8 10  1  0  0  0  0
 11 16  2  0  0  0  0
 11 19  1  0  0  0  0
 12 36  1  0  0  0  0
 12 39  1  0  0  0  0
 12 69  1  0  0  0  0
 13 14  1  0  0  0  0
 13 15  1  0  0  0  0
 13 26  1  0  0  0  0
 16 17  1  0  0  0  0
 16 21  1  0  0  0  0
 18 21  1  0  0  0  0
 18 32  1  0  0  0  0
 18 43  2  0  0  0  0
 19 20  1  0  0  0  0
 19 32  2  0  0  0  0
 22 23  1  0  0  0  0
 22 24  1  0  0  0  0
 22 36  1  0  0  0  0
 25 34  1  0  0  0  0
 26 27  1  0  0  0  0
 26 28  1  0  0  0  0
 29 30  1  0  0  0  0
 29 31  1  0  0  0  0
 29 53  1  0  0  0  0
 32 33  1  0  0  0  0
 34 47  2  0  0  0  0
 34 60  1  0  0  0  0
 35 42  1  0  0  0  0
 35 48  2  0  0  0  0
 35 64  1  0  0  0  0
 36 37  1  0  0  0  0
 36 38  1  0  0  0  0
 39 40  1  0  0  0  0
 39 41  1  0  0  0  0
 39 46  1  0  0  0  0
 42 46  1  0  0  0  0
 44 45  1  0  0  0  0
 46 53  1  0  0  0  0
 46 73  1  0  0  0  0
 49 50  1  0  0  0  0
 49 51  1  0  0  0  0
 49 52  1  0  0  0  0
 53 54  1  0  0  0  0
 53 55  1  0  0  0  0
 56 57  1  0  0  0  0
 56 58  1  0  0  0  0
 56 59  1  0  0  0  0
 60 61  1  0  0  0  0
 60 62  1  0  0  0  0
 60 63  1  0  0  0  0
 64 65  1  0  0  0  0
 64 66  1  0  0  0  0
 64 67  1  0  0  0  0
M  END
>  <IDNUMBER>
AO-774/41465590

>  <NAME>
Gamabutotalin, Derivative of

>  <ADD_INFO>
http://www.specs.net/enter.php?specsid=AO-774/41465590

>  <H_ACCEPTORS>
7

>  <H_DONORS>
1

>  <ROTATABLE_BONDS>
5

>  <LOGP>
4.0500002

>  <LOGS>
-5.6900001

>  <TPSA>
99.129997

>  <PRICE>
N06

$$$$
AO-774/41465632
  MOE2011           3D

 78 81  0  0  1  0  0  0  0  0999 V2000
    1.2670   -0.3470    0.3500 C   0  0  2  0  0  0  0  0  0  0  0  0
   -1.7200    0.1160    0.9740 C   0  0  2  0  0  0  0  0  0  0  0  0
   -3.0040   -0.2500    0.1470 C   0  0  2  0  0  0  0  0  0  0  0  0
    0.5930    1.0220    0.6950 C   0  0  2  0  0  0  0  0  0  0  0  0
   -0.8400    1.1030    0.1710 C   0  0  2  0  0  0  0  0  0  0  0  0
    0.3940   -1.4990    0.9640 C   0  0  2  0  0  0  0  0  0  0  0  0
   -3.5540    1.0510   -0.5680 C   0  0  2  0  0  0  0  0  0  0  0  0
   -0.9280   -1.0390    1.6230 C   0  0  0  0  0  0  0  0  0  0  0  0
   -1.5750   -1.9060    1.7870 H   0  0  0  0  0  0  0  0  0  0  0  0
   -0.6770   -0.7190    2.6470 H   0  0  0  0  0  0  0  0  0  0  0  0
   -1.5110    2.4860    0.1950 C   0  0  1  0  0  0  0  0  0  0  0  0
    2.7060   -0.0710    0.9250 C   0  0  2  0  0  0  0  0  0  0  0  0
   -3.0460    2.3670    0.0820 C   0  0  0  0  0  0  0  0  0  0  0  0
   -3.4950    2.4720    1.0790 H   0  0  0  0  0  0  0  0  0  0  0  0
   -3.4180    3.2260   -0.4920 H   0  0  0  0  0  0  0  0  0  0  0  0
    1.6030    2.0550    0.2320 C   0  0  0  0  0  0  0  0  0  0  0  0
    1.5880    2.1800   -0.8560 H   0  0  0  0  0  0  0  0  0  0  0  0
    1.4380    3.0400    0.6780 H   0  0  0  0  0  0  0  0  0  0  0  0
   -4.0970   -0.8130    1.0920 C   0  0  0  0  0  0  0  0  0  0  0  0
   -3.7450   -1.7030    1.6240 H   0  0  0  0  0  0  0  0  0  0  0  0
   -4.3130   -0.0670    1.8690 H   0  0  0  0  0  0  0  0  0  0  0  0
    2.9330    1.4590    0.6980 C   0  0  0  0  0  0  0  0  0  0  0  0
    3.2320    1.9160    1.6500 H   0  0  0  0  0  0  0  0  0  0  0  0
    3.7240    1.6990   -0.0170 H   0  0  0  0  0  0  0  0  0  0  0  0
    6.7800    0.1600   -0.6690 C   0  0  0  0  0  0  0  0  0  0  0  0
   -5.1000    1.1140   -0.6330 C   0  0  0  0  0  0  0  0  0  0  0  0
   -5.4050    1.7700   -1.4590 H   0  0  0  0  0  0  0  0  0  0  0  0
   -5.5050    1.5940    0.2700 H   0  0  0  0  0  0  0  0  0  0  0  0
    0.7300   -3.4860    2.2360 C   0  0  0  0  0  0  0  0  0  0  0  0
    1.3790   -3.9080    3.0180 H   0  0  0  0  0  0  0  0  0  0  0  0
   -1.1070    4.4940    1.4370 C   0  0  0  0  0  0  0  0  0  0  0  0
   -1.3730    4.9360    0.4660 H   0  0  0  0  0  0  0  0  0  0  0  0
   -7.9120   -1.1020   -1.3570 C   0  0  0  0  0  0  0  0  0  0  0  0
   -7.2880   -1.9610   -1.6450 H   0  0  0  0  0  0  0  0  0  0  0  0
    7.3180    0.1660    0.4360 O   0  0  0  0  0  0  0  0  0  0  0  0
   -0.1930   -4.0900    1.7120 O   0  0  0  0  0  0  0  0  0  0  0  0
   -0.7760    5.1600    2.4080 O   0  0  0  0  0  0  0  0  0  0  0  0
   -9.1290   -1.0910   -1.4730 O   0  0  0  0  0  0  0  0  0  0  0  0
    1.1360   -2.2170    1.9720 O   0  0  0  0  0  0  0  0  0  0  0  0
   -1.1900    3.1440    1.4390 O   0  0  0  0  0  0  0  0  0  0  0  0
    3.9800   -0.8910    0.5280 C   0  0  3  0  0  0  0  0  0  0  0  0
    4.4490   -0.7860   -0.9470 C   0  0  0  0  0  0  0  0  0  0  0  0
    3.9340   -1.5410   -1.5500 H   0  0  0  0  0  0  0  0  0  0  0  0
    4.1880    0.1850   -1.3730 H   0  0  0  0  0  0  0  0  0  0  0  0
    5.9540   -1.0160   -1.1390 C   0  0  0  0  0  0  0  0  0  0  0  0
    6.1780   -1.2360   -2.1870 H   0  0  0  0  0  0  0  0  0  0  0  0
    6.2940   -1.9020   -0.5920 H   0  0  0  0  0  0  0  0  0  0  0  0
    1.3380   -0.6130   -1.1750 C   0  0  0  0  0  0  0  0  0  0  0  0
    1.8980    0.1520   -1.7190 H   0  0  0  0  0  0  0  0  0  0  0  0
    0.3520   -0.6720   -1.6390 H   0  0  0  0  0  0  0  0  0  0  0  0
    1.8050   -1.5830   -1.3730 H   0  0  0  0  0  0  0  0  0  0  0  0
   -5.4130   -1.1660    0.3910 C   0  0  0  0  0  0  0  0  0  0  0  0
   -6.2200   -1.1600    1.1350 H   0  0  0  0  0  0  0  0  0  0  0  0
   -5.3660   -2.2000    0.0280 H   0  0  0  0  0  0  0  0  0  0  0  0
   -5.7580   -0.2520   -0.7900 C   0  0  1  0  0  0  0  0  0  0  0  0
   -2.6530   -1.3290   -0.9090 C   0  0  0  0  0  0  0  0  0  0  0  0
   -3.5010   -1.5910   -1.5450 H   0  0  0  0  0  0  0  0  0  0  0  0
   -2.3180   -2.2580   -0.4360 H   0  0  0  0  0  0  0  0  0  0  0  0
   -1.8630   -0.9940   -1.5840 H   0  0  0  0  0  0  0  0  0  0  0  0
   -7.1880   -0.0680   -0.8650 O   0  0  0  0  0  0  0  0  0  0  0  0
    6.8660    1.2400   -1.4850 O   0  0  0  0  0  0  0  0  0  0  0  0
    3.8790   -2.3630    0.9360 C   0  0  0  0  0  0  0  0  0  0  0  0
    4.8230   -2.8910    0.7660 H   0  0  0  0  0  0  0  0  0  0  0  0
    3.1050   -2.8860    0.3670 H   0  0  0  0  0  0  0  0  0  0  0  0
    3.6620   -2.4550    2.0050 H   0  0  0  0  0  0  0  0  0  0  0  0
    6.6000    1.1560   -2.8920 C   0  0  0  0  0  0  0  0  0  0  0  0
    6.8880    2.1100   -3.3420 H   0  0  0  0  0  0  0  0  0  0  0  0
    5.5340    0.9980   -3.0750 H   0  0  0  0  0  0  0  0  0  0  0  0
    7.2040    0.3680   -3.3500 H   0  0  0  0  0  0  0  0  0  0  0  0
   -0.8380    0.8130   -0.8830 H   0  0  0  0  0  0  0  0  0  0  0  0
    0.5490    1.1230    1.7920 H   0  0  0  0  0  0  0  0  0  0  0  0
   -2.0930    0.6700    1.8510 H   0  0  0  0  0  0  0  0  0  0  0  0
   -3.1880    1.0480   -1.6040 H   0  0  0  0  0  0  0  0  0  0  0  0
    0.1370   -2.2050    0.1640 H   0  0  0  0  0  0  0  0  0  0  0  0
   -1.1160    3.0740   -0.6450 H   0  0  0  0  0  0  0  0  0  0  0  0
    2.6220   -0.1860    2.0180 H   0  0  0  0  0  0  0  0  0  0  0  0
    4.7810   -0.4650    1.1470 H   0  0  0  0  0  0  0  0  0  0  0  0
   -5.4250   -0.6900   -1.7380 H   0  0  0  0  0  0  0  0  0  0  0  0
  1  4  1  0  0  0  0
  1  6  1  0  0  0  0
  1 12  1  0  0  0  0
  1 48  1  0  0  0  0
  2  3  1  0  0  0  0
  2  5  1  0  0  0  0
  2  8  1  0  0  0  0
  2 72  1  0  0  0  0
  3  7  1  0  0  0  0
  3 19  1  0  0  0  0
  3 56  1  0  0  0  0
  4  5  1  0  0  0  0
  4 16  1  0  0  0  0
  4 71  1  0  0  0  0
  5 11  1  0  0  0  0
  5 70  1  0  0  0  0
  6  8  1  0  0  0  0
  6 39  1  0  0  0  0
  6 74  1  0  0  0  0
  7 13  1  0  0  0  0
  7 26  1  0  0  0  0
  7 73  1  0  0  0  0
  8  9  1  0  0  0  0
  8 10  1  0  0  0  0
 11 13  1  0  0  0  0
 11 40  1  0  0  0  0
 11 75  1  0  0  0  0
 12 22  1  0  0  0  0
 12 41  1  0  0  0  0
 12 76  1  0  0  0  0
 13 14  1  0  0  0  0
 13 15  1  0  0  0  0
 16 17  1  0  0  0  0
 16 18  1  0  0  0  0
 16 22  1  0  0  0  0
 19 20  1  0  0  0  0
 19 21  1  0  0  0  0
 19 52  1  0  0  0  0
 22 23  1  0  0  0  0
 22 24  1  0  0  0  0
 25 35  2  0  0  0  0
 25 45  1  0  0  0  0
 25 61  1  0  0  0  0
 26 27  1  0  0  0  0
 26 28  1  0  0  0  0
 26 55  1  0  0  0  0
 29 30  1  0  0  0  0
 29 36  2  0  0  0  0
 29 39  1  0  0  0  0
 31 32  1  0  0  0  0
 31 37  2  0  0  0  0
 31 40  1  0  0  0  0
 33 34  1  0  0  0  0
 33 38  2  0  0  0  0
 33 60  1  0  0  0  0
 41 42  1  0  0  0  0
 41 62  1  0  0  0  0
 41 77  1  0  0  0  0
 42 43  1  0  0  0  0
 42 44  1  0  0  0  0
 42 45  1  0  0  0  0
 45 46  1  0  0  0  0
 45 47  1  0  0  0  0
 48 49  1  0  0  0  0
 48 50  1  0  0  0  0
 48 51  1  0  0  0  0
 52 53  1  0  0  0  0
 52 54  1  0  0  0  0
 52 55  1  0  0  0  0
 55 60  1  0  0  0  0
 55 78  1  0  0  0  0
 56 57  1  0  0  0  0
 56 58  1  0  0  0  0
 56 59  1  0  0  0  0
 61 66  1  0  0  0  0
 62 63  1  0  0  0  0
 62 64  1  0  0  0  0
 62 65  1  0  0  0  0
 66 67  1  0  0  0  0
 66 68  1  0  0  0  0
 66 69  1  0  0  0  0
M  END
>  <IDNUMBER>
AO-774/41465632

>  <NAME>
Cholic acid, derivative of

>  <ADD_INFO>
http://www.specs.net/enter.php?specsid=AO-774/41465632

>  <H_ACCEPTORS>
8

>  <H_DONORS>
0

>  <ROTATABLE_BONDS>
11

>  <LOGP>
4.77

>  <LOGS>
-6.9699998

>  <TPSA>
105.2

>  <PRICE>
N06

$$$$
AO-774/41465633
  MOE2011           3D

 71 74  0  0  1  0  0  0  0  0999 V2000
    1.6380   -0.7300    0.3430 C   0  0  2  0  0  0  0  0  0  0  0  0
   -1.4140   -0.5800    0.4680 C   0  0  2  0  0  0  0  0  0  0  0  0
    0.8380    0.5980    0.3750 C   0  0  2  0  0  0  0  0  0  0  0  0
   -2.7770   -0.8340   -0.3040 C   0  0  2  0  0  0  0  0  0  0  0  0
    0.8030   -1.6450    1.2380 C   0  0  0  0  0  0  0  0  0  0  0  0
   -0.5670    0.5200   -0.2470 C   0  0  2  0  0  0  0  0  0  0  0  0
   -3.4180    0.5230   -0.7770 C   0  0  2  0  0  0  0  0  0  0  0  0
   -1.3140    1.8840   -0.2250 C   0  0  1  0  0  0  0  0  0  0  0  0
   -0.6320   -1.8820    0.7850 C   0  0  0  0  0  0  0  0  0  0  0  0
   -0.5760   -2.5580   -0.0710 H   0  0  0  0  0  0  0  0  0  0  0  0
   -1.1450   -2.4280    1.5850 H   0  0  0  0  0  0  0  0  0  0  0  0
    3.0040   -0.2480    0.9300 C   0  0  2  0  0  0  0  0  0  0  0  0
   -2.8290    1.7380   -0.0550 C   0  0  0  0  0  0  0  0  0  0  0  0
   -3.0780    1.6910    1.0150 H   0  0  0  0  0  0  0  0  0  0  0  0
   -3.3140    2.6550   -0.4160 H   0  0  0  0  0  0  0  0  0  0  0  0
    1.8240    1.5990   -0.2080 C   0  0  0  0  0  0  0  0  0  0  0  0
    1.9350    1.4680   -1.2900 H   0  0  0  0  0  0  0  0  0  0  0  0
    1.5520    2.6420   -0.0280 H   0  0  0  0  0  0  0  0  0  0  0  0
   -0.8360    2.6960    0.8700 O   0  0  0  0  0  0  0  0  0  0  0  0
   -3.7660   -1.5780    0.6330 C   0  0  0  0  0  0  0  0  0  0  0  0
   -3.3470   -2.5340    0.9670 H   0  0  0  0  0  0  0  0  0  0  0  0
   -3.9100   -0.9790    1.5420 H   0  0  0  0  0  0  0  0  0  0  0  0
    3.1200    1.2430    0.5190 C   0  0  0  0  0  0  0  0  0  0  0  0
    3.2040    1.8520    1.4290 H   0  0  0  0  0  0  0  0  0  0  0  0
    3.9900    1.4940   -0.0840 H   0  0  0  0  0  0  0  0  0  0  0  0
   -0.9610    4.0460    0.7410 C   0  0  0  0  0  0  0  0  0  0  0  0
    6.3170    0.7730   -1.1930 C   0  0  0  0  0  0  0  0  0  0  0  0
    1.2470   -2.2020    2.2400 O   0  0  0  0  0  0  0  0  0  0  0  0
   -4.9550    0.5790   -0.6190 C   0  0  0  0  0  0  0  0  0  0  0  0
   -5.3630    1.3610   -1.2730 H   0  0  0  0  0  0  0  0  0  0  0  0
   -5.2270    0.8960    0.3980 H   0  0  0  0  0  0  0  0  0  0  0  0
   -1.4940    4.6320   -0.1910 O   0  0  0  0  0  0  0  0  0  0  0  0
    6.4940    1.6910   -2.0450 O   0  0  0  0  0  0  0  0  0  0  0  0
    4.3250   -1.0600    0.7770 C   0  0  3  0  0  0  0  0  0  0  0  0
    4.9240   -1.3780   -0.6170 C   0  0  0  0  0  0  0  0  0  0  0  0
    5.8710   -1.9130   -0.4500 H   0  0  0  0  0  0  0  0  0  0  0  0
    4.2940   -2.1040   -1.1380 H   0  0  0  0  0  0  0  0  0  0  0  0
    5.2300   -0.2360   -1.5790 C   0  0  0  0  0  0  0  0  0  0  0  0
    4.3170    0.3070   -1.8390 H   0  0  0  0  0  0  0  0  0  0  0  0
    5.5750   -0.6900   -2.5180 H   0  0  0  0  0  0  0  0  0  0  0  0
    1.7500   -1.3710   -1.0460 C   0  0  0  0  0  0  0  0  0  0  0  0
    2.3510   -0.7740   -1.7340 H   0  0  0  0  0  0  0  0  0  0  0  0
    0.7810   -1.5110   -1.5320 H   0  0  0  0  0  0  0  0  0  0  0  0
    2.1820   -2.3740   -0.9730 H   0  0  0  0  0  0  0  0  0  0  0  0
   -5.1430   -1.8520    0.0170 C   0  0  0  0  0  0  0  0  0  0  0  0
   -5.8620   -2.0310    0.8270 H   0  0  0  0  0  0  0  0  0  0  0  0
   -5.1100   -2.7910   -0.5500 H   0  0  0  0  0  0  0  0  0  0  0  0
   -5.6370   -0.7460   -0.9150 C   0  0  1  0  0  0  0  0  0  0  0  0
   -2.5350   -1.7170   -1.5600 C   0  0  0  0  0  0  0  0  0  0  0  0
   -3.4040   -1.7450   -2.2230 H   0  0  0  0  0  0  0  0  0  0  0  0
   -2.3200   -2.7560   -1.2920 H   0  0  0  0  0  0  0  0  0  0  0  0
   -1.7010   -1.3450   -2.1630 H   0  0  0  0  0  0  0  0  0  0  0  0
    6.9060    0.5770   -0.0960 O   0  5  0  0  0  0  0  0  0  0  0  0
   -7.0460   -0.5840   -0.7660 O   0  0  0  0  0  0  0  0  0  0  0  0
   -7.4620   -1.4390   -0.9700 H   0  0  0  0  0  0  0  0  0  0  0  0
   -0.3420    4.7250    1.9240 C   0  0  0  0  0  0  0  0  0  0  0  0
   -0.8120    4.3690    2.8440 H   0  0  0  0  0  0  0  0  0  0  0  0
   -0.5030    5.8040    1.8480 H   0  0  0  0  0  0  0  0  0  0  0  0
    0.7330    4.5310    1.9410 H   0  0  0  0  0  0  0  0  0  0  0  0
    4.2250   -2.3890    1.5470 C   0  0  0  0  0  0  0  0  0  0  0  0
    5.1980   -2.8900    1.5860 H   0  0  0  0  0  0  0  0  0  0  0  0
    3.5160   -3.0740    1.0720 H   0  0  0  0  0  0  0  0  0  0  0  0
    3.9110   -2.2220    2.5830 H   0  0  0  0  0  0  0  0  0  0  0  0
   -0.4680    0.2450   -1.3030 H   0  0  0  0  0  0  0  0  0  0  0  0
    0.6930    0.8690    1.4350 H   0  0  0  0  0  0  0  0  0  0  0  0
   -1.6680   -0.1650    1.4560 H   0  0  0  0  0  0  0  0  0  0  0  0
   -3.1980    0.6540   -1.8460 H   0  0  0  0  0  0  0  0  0  0  0  0
   -1.0890    2.3920   -1.1720 H   0  0  0  0  0  0  0  0  0  0  0  0
    2.8530   -0.2070    2.0220 H   0  0  0  0  0  0  0  0  0  0  0  0
    5.0840   -0.4750    1.3140 H   0  0  0  0  0  0  0  0  0  0  0  0
   -5.4620   -1.0180   -1.9600 H   0  0  0  0  0  0  0  0  0  0  0  0
  1  3  1  0  0  0  0
  1  5  1  0  0  0  0
  1 12  1  0  0  0  0
  1 41  1  0  0  0  0
  2  4  1  0  0  0  0
  2  6  1  0  0  0  0
  2  9  1  0  0  0  0
  2 66  1  0  0  0  0
  3  6  1  0  0  0  0
  3 16  1  0  0  0  0
  3 65  1  0  0  0  0
  4  7  1  0  0  0  0
  4 20  1  0  0  0  0
  4 49  1  0  0  0  0
  5  9  1  0  0  0  0
  5 28  2  0  0  0  0
  6  8  1  0  0  0  0
  6 64  1  0  0  0  0
  7 13  1  0  0  0  0
  7 29  1  0  0  0  0
  7 67  1  0  0  0  0
  8 13  1  0  0  0  0
  8 19  1  0  0  0  0
  8 68  1  0  0  0  0
  9 10  1  0  0  0  0
  9 11  1  0  0  0  0
 12 23  1  0  0  0  0
 12 34  1  0  0  0  0
 12 69  1  0  0  0  0
 13 14  1  0  0  0  0
 13 15  1  0  0  0  0
 16 17  1  0  0  0  0
 16 18  1  0  0  0  0
 16 23  1  0  0  0  0
 19 26  1  0  0  0  0
 20 21  1  0  0  0  0
 20 22  1  0  0  0  0
 20 45  1  0  0  0  0
 23 24  1  0  0  0  0
 23 25  1  0  0  0  0
 26 32  2  0  0  0  0
 26 56  1  0  0  0  0
 27 33  2  0  0  0  0
 27 38  1  0  0  0  0
 27 53  1  0  0  0  0
 29 30  1  0  0  0  0
 29 31  1  0  0  0  0
 29 48  1  0  0  0  0
 34 35  1  0  0  0  0
 34 60  1  0  0  0  0
 34 70  1  0  0  0  0
 35 36  1  0  0  0  0
 35 37  1  0  0  0  0
 35 38  1  0  0  0  0
 38 39  1  0  0  0  0
 38 40  1  0  0  0  0
 41 42  1  0  0  0  0
 41 43  1  0  0  0  0
 41 44  1  0  0  0  0
 45 46  1  0  0  0  0
 45 47  1  0  0  0  0
 45 48  1  0  0  0  0
 48 54  1  0  0  0  0
 48 71  1  0  0  0  0
 49 50  1  0  0  0  0
 49 51  1  0  0  0  0
 49 52  1  0  0  0  0
 54 55  1  0  0  0  0
 56 57  1  0  0  0  0
 56 58  1  0  0  0  0
 56 59  1  0  0  0  0
 60 61  1  0  0  0  0
 60 62  1  0  0  0  0
 60 63  1  0  0  0  0
M  CHG  1  53  -1
M  END
>  <IDNUMBER>
AO-774/41465633

>  <NAME>
Cholic acid, derivative of

>  <ADD_INFO>
http://www.specs.net/enter.php?specsid=AO-774/41465633

>  <H_ACCEPTORS>
6

>  <H_DONORS>
2

>  <ROTATABLE_BONDS>
6

>  <LOGP>
4.3099999

>  <LOGS>
-5.2399998

>  <TPSA>
100.9

>  <PRICE>
N06

$$$$
AO-774/41465634
  MOE2011           3D

 50 55  0  0  1  0  0  0  0  0999 V2000
   -0.5290    0.6270    0.8800 C   0  0  1  0  0  0  0  0  0  0  0  0
   -0.3920   -0.4590   -0.2600 C   0  0  1  0  0  0  0  0  0  0  0  0
    0.5630    1.7000    0.8360 C   0  0  1  0  0  0  0  0  0  0  0  0
   -1.9060    1.0760    0.8120 N   0  0  0  0  0  0  0  0  0  0  0  0
   -2.2730    1.9760    1.0840 H   0  0  0  0  0  0  0  0  0  0  0  0
    1.7770   -0.5720    1.0600 C   0  0  2  0  0  0  0  0  0  0  0  0
    0.8280   -1.3270    0.0580 C   0  0  2  0  0  0  0  0  0  0  0  0
    1.9270    0.9630    0.7830 C   0  0  0  0  0  0  0  0  0  0  0  0
    2.5760    1.4070    1.5530 H   0  0  0  0  0  0  0  0  0  0  0  0
    2.4660    1.1410   -0.1500 H   0  0  0  0  0  0  0  0  0  0  0  0
   -1.7960   -1.0190   -0.1860 C   0  0  0  0  0  0  0  0  0  0  0  0
   -2.6360   -0.0090    0.3280 C   0  0  0  0  0  0  0  0  0  0  0  0
    1.4780   -1.5940   -1.2820 N   0  3  3  0  0  0  0  0  0  0  0  0
    0.9400   -2.3610   -1.7090 H   0  0  0  0  0  0  0  0  0  0  0  0
    0.4130    2.7530   -0.2440 C   0  0  0  0  0  0  0  0  0  0  0  0
   -0.2020   -0.0030   -1.7310 C   0  0  0  0  0  0  0  0  0  0  0  0
   -0.4200    1.0490   -1.9130 H   0  0  0  0  0  0  0  0  0  0  0  0
   -0.8880   -0.5430   -2.4010 H   0  0  0  0  0  0  0  0  0  0  0  0
   -0.3410   -0.0720    2.2910 C   0  0  0  0  0  0  0  0  0  0  0  0
   -0.5140    0.6510    3.1000 H   0  0  0  0  0  0  0  0  0  0  0  0
   -1.0820   -0.8660    2.4530 H   0  0  0  0  0  0  0  0  0  0  0  0
    3.1450   -1.1920    1.0850 C   0  0  0  0  0  0  0  0  0  0  0  0
    3.7680   -1.0500    1.9660 H   0  0  0  0  0  0  0  0  0  0  0  0
    1.0650   -0.6750    2.4250 C   0  0  0  0  0  0  0  0  0  0  0  0
    0.9930   -1.7170    2.7630 H   0  0  0  0  0  0  0  0  0  0  0  0
    1.6250   -0.1390    3.2030 H   0  0  0  0  0  0  0  0  0  0  0  0
    1.2030   -0.4000   -2.1470 C   0  0  0  0  0  0  0  0  0  0  0  0
    1.9550    0.3630   -1.9540 H   0  0  0  0  0  0  0  0  0  0  0  0
    1.2620   -0.7150   -3.1940 H   0  0  0  0  0  0  0  0  0  0  0  0
    3.6320   -1.8640    0.0330 C   0  0  0  0  0  0  0  0  0  0  0  0
    4.6380   -2.2740    0.0940 H   0  0  0  0  0  0  0  0  0  0  0  0
    1.1180    2.8300   -1.2420 O   0  0  0  0  0  0  0  0  0  0  0  0
    2.8970   -2.0940   -1.2450 C   0  0  0  0  0  0  0  0  0  0  0  0
    2.8360   -3.1730   -1.4260 H   0  0  0  0  0  0  0  0  0  0  0  0
    3.4320   -1.6430   -2.0870 H   0  0  0  0  0  0  0  0  0  0  0  0
   -0.6020    3.6060    0.0680 O   0  0  0  0  0  0  0  0  0  0  0  0
   -2.3060   -2.2360   -0.6070 C   0  0  0  0  0  0  0  0  0  0  0  0
   -1.6740   -3.0140   -1.0190 H   0  0  0  0  0  0  0  0  0  0  0  0
   -3.9980   -0.2010    0.4220 C   0  0  0  0  0  0  0  0  0  0  0  0
   -4.6450    0.5630    0.8390 H   0  0  0  0  0  0  0  0  0  0  0  0
   -0.8240    4.6420   -0.8920 C   0  0  0  0  0  0  0  0  0  0  0  0
   -1.6570    5.2560   -0.5400 H   0  0  0  0  0  0  0  0  0  0  0  0
   -1.0920    4.2120   -1.8610 H   0  0  0  0  0  0  0  0  0  0  0  0
    0.0640    5.2760   -0.9810 H   0  0  0  0  0  0  0  0  0  0  0  0
   -3.6850   -2.4330   -0.5100 C   0  0  0  0  0  0  0  0  0  0  0  0
   -4.1220   -3.3760   -0.8350 H   0  0  0  0  0  0  0  0  0  0  0  0
   -4.5240   -1.4240   -0.0060 C   0  0  0  0  0  0  0  0  0  0  0  0
   -5.5950   -1.6010    0.0620 H   0  0  0  0  0  0  0  0  0  0  0  0
    0.5520   -2.3150    0.4500 H   0  0  0  0  0  0  0  0  0  0  0  0
    0.5500    2.2740    1.7750 H   0  0  0  0  0  0  0  0  0  0  0  0
  1  2  1  0  0  0  0
  1  3  1  0  0  0  0
  1  4  1  0  0  0  0
  1 19  1  0  0  0  0
  2  7  1  0  0  0  0
  2 11  1  0  0  0  0
  2 16  1  0  0  0  0
  3  8  1  0  0  0  0
  3 15  1  0  0  0  0
  3 50  1  0  0  0  0
  4  5  1  0  0  0  0
  4 12  1  0  0  0  0
  6  7  1  0  0  0  0
  6  8  1  0  0  0  0
  6 22  1  0  0  0  0
  6 24  1  0  0  0  0
  7 13  1  0  0  0  0
  7 49  1  0  0  0  0
  8  9  1  0  0  0  0
  8 10  1  0  0  0  0
 11 12  2  0  0  0  0
 11 37  1  0  0  0  0
 12 39  1  0  0  0  0
 13 14  1  0  0  0  0
 13 27  1  0  0  0  0
 13 33  1  0  0  0  0
 15 32  2  0  0  0  0
 15 36  1  0  0  0  0
 16 17  1  0  0  0  0
 16 18  1  0  0  0  0
 16 27  1  0  0  0  0
 19 20  1  0  0  0  0
 19 21  1  0  0  0  0
 19 24  1  0  0  0  0
 22 23  1  0  0  0  0
 22 30  2  0  0  0  0
 24 25  1  0  0  0  0
 24 26  1  0  0  0  0
 27 28  1  0  0  0  0
 27 29  1  0  0  0  0
 30 31  1  0  0  0  0
 30 33  1  0  0  0  0
 33 34  1  0  0  0  0
 33 35  1  0  0  0  0
 36 41  1  0  0  0  0
 37 38  1  0  0  0  0
 37 45  2  0  0  0  0
 39 40  1  0  0  0  0
 39 47  2  0  0  0  0
 41 42  1  0  0  0  0
 41 43  1  0  0  0  0
 41 44  1  0  0  0  0
 45 46  1  0  0  0  0
 45 47  1  0  0  0  0
 47 48  1  0  0  0  0
M  CHG  1  13   1
M  END
>  <IDNUMBER>
AO-774/41465634

>  <NAME>
Venalstonine

>  <ADD_INFO>
http://www.specs.net/enter.php?specsid=AO-774/41465634

>  <H_ACCEPTORS>
4

>  <H_DONORS>
1

>  <ROTATABLE_BONDS>
2

>  <LOGP>
2.26

>  <LOGS>
-2.5799999

>  <TPSA>
41.57

>  <PRICE>
N06

$$$$
AO-774/41465643
  MOE2011           3D

 83 86  0  0  1  0  0  0  0  0999 V2000
    1.1220   -1.4220   -0.3550 C   0  0  1  0  0  0  0  0  0  0  0  0
   -3.3210   -1.2890   -0.2040 C   0  0  2  0  0  0  0  0  0  0  0  0
   -3.7330   -0.2270    0.8240 C   0  0  0  0  0  0  0  0  0  0  0  0
    0.3980   -1.8220    0.9600 C   0  0  2  0  0  0  0  0  0  0  0  0
   -1.7550   -1.2930   -0.3100 C   0  0  3  0  0  0  0  0  0  0  0  0
   -1.0800   -1.3800    1.0960 C   0  0  3  0  0  0  0  0  0  0  0  0
   -2.8670    0.3150    1.7040 C   0  0  0  0  0  0  0  0  0  0  0  0
   -3.2220    1.1040    2.3660 H   0  0  0  0  0  0  0  0  0  0  0  0
   -1.4210   -0.1070    1.9110 C   0  0  3  0  0  0  0  0  0  0  0  0
    2.5300   -2.0700   -0.0960 C   0  0  2  0  0  0  0  0  0  0  0  0
    0.3540   -2.0600   -1.5450 C   0  0  0  0  0  0  0  0  0  0  0  0
    0.4400   -1.4160   -2.4290 H   0  0  0  0  0  0  0  0  0  0  0  0
    0.8020   -3.0180   -1.8340 H   0  0  0  0  0  0  0  0  0  0  0  0
   -1.1430   -2.3250   -1.2720 C   0  0  0  0  0  0  0  0  0  0  0  0
   -1.2530   -3.3320   -0.8500 H   0  0  0  0  0  0  0  0  0  0  0  0
   -1.6630   -2.3370   -2.2340 H   0  0  0  0  0  0  0  0  0  0  0  0
    1.4230   -1.5230    2.0440 C   0  0  0  0  0  0  0  0  0  0  0  0
    1.4790   -0.4540    2.2710 H   0  0  0  0  0  0  0  0  0  0  0  0
    1.2150   -2.0630    2.9720 H   0  0  0  0  0  0  0  0  0  0  0  0
    4.5950   -0.4740   -0.8310 C   0  0  0  0  0  0  0  0  0  0  0  0
    5.4390   -0.4290   -1.5220 H   0  0  0  0  0  0  0  0  0  0  0  0
    4.4710    0.5600    0.0150 C   0  0  0  0  0  0  0  0  0  0  0  0
    3.6810    0.5840    0.7550 H   0  0  0  0  0  0  0  0  0  0  0  0
   -3.9100   -0.9150   -1.6000 C   0  0  0  0  0  0  0  0  0  0  0  0
   -3.3390   -0.0800   -2.0300 H   0  0  0  0  0  0  0  0  0  0  0  0
   -3.7990   -1.7540   -2.2970 H   0  0  0  0  0  0  0  0  0  0  0  0
    2.7530   -1.9830    1.4350 C   0  0  0  0  0  0  0  0  0  0  0  0
    3.0090   -2.9800    1.8160 H   0  0  0  0  0  0  0  0  0  0  0  0
    3.5680   -1.3270    1.7430 H   0  0  0  0  0  0  0  0  0  0  0  0
   -5.1780    0.2160    0.8060 C   0  0  0  0  0  0  0  0  0  0  0  0
   -5.3540    1.0400    1.5080 H   0  0  0  0  0  0  0  0  0  0  0  0
   -5.8130   -0.6010    1.1710 H   0  0  0  0  0  0  0  0  0  0  0  0
   -7.5980    2.1110   -0.3230 C   0  0  0  0  0  0  0  0  0  0  0  0
    3.7820   -1.7500   -0.9680 C   0  0  3  0  0  0  0  0  0  0  0  0
   -7.0510    0.8990   -0.5840 O   0  0  0  0  0  0  0  0  0  0  0  0
   -5.6280    0.6350   -0.5940 C   0  0  2  0  0  0  0  0  0  0  0  0
   -8.8150    2.2490   -0.2300 O   0  0  0  0  0  0  0  0  0  0  0  0
    5.4160    1.7460    0.0400 C   0  0  3  0  0  0  0  0  0  0  0  0
   -5.3830   -0.5060   -1.5820 C   0  0  0  0  0  0  0  0  0  0  0  0
   -6.0200   -1.3640   -1.3370 H   0  0  0  0  0  0  0  0  0  0  0  0
   -5.6920   -0.1920   -2.5860 H   0  0  0  0  0  0  0  0  0  0  0  0
    1.2160    0.1030   -0.5570 C   0  0  0  0  0  0  0  0  0  0  0  0
    1.8650    0.3470   -1.4020 H   0  0  0  0  0  0  0  0  0  0  0  0
    1.5940    0.6200    0.3270 H   0  0  0  0  0  0  0  0  0  0  0  0
    0.2570    0.5680   -0.7840 H   0  0  0  0  0  0  0  0  0  0  0  0
   -3.8740   -2.6640    0.2260 C   0  0  0  0  0  0  0  0  0  0  0  0
   -3.5870   -3.4490   -0.4810 H   0  0  0  0  0  0  0  0  0  0  0  0
   -4.9690   -2.6680    0.2750 H   0  0  0  0  0  0  0  0  0  0  0  0
   -3.5200   -2.9620    1.2180 H   0  0  0  0  0  0  0  0  0  0  0  0
    4.6590    3.0830   -0.2010 C   0  0  0  0  0  0  0  0  0  0  0  0
    3.8680    3.1870    0.5540 H   0  0  0  0  0  0  0  0  0  0  0  0
   -1.2400   -0.3060    3.4240 C   0  0  0  0  0  0  0  0  0  0  0  0
   -0.1970   -0.4410    3.7080 H   0  0  0  0  0  0  0  0  0  0  0  0
   -1.8020   -1.1750    3.7830 H   0  0  0  0  0  0  0  0  0  0  0  0
   -1.5940    0.5690    3.9830 H   0  0  0  0  0  0  0  0  0  0  0  0
   -6.6650    3.2760   -0.1780 C   0  0  0  0  0  0  0  0  0  0  0  0
   -6.1480    3.4660   -1.1210 H   0  0  0  0  0  0  0  0  0  0  0  0
   -5.9600    3.1130    0.6390 H   0  0  0  0  0  0  0  0  0  0  0  0
   -7.2490    4.1690    0.0670 H   0  0  0  0  0  0  0  0  0  0  0  0
    3.4870   -1.9700   -2.4610 C   0  0  0  0  0  0  0  0  0  0  0  0
    4.4110   -1.9540   -3.0520 H   0  0  0  0  0  0  0  0  0  0  0  0
    2.8290   -1.1960   -2.8670 H   0  0  0  0  0  0  0  0  0  0  0  0
    3.0230   -2.9470   -2.6300 H   0  0  0  0  0  0  0  0  0  0  0  0
    6.1620    1.7240    1.3790 C   0  0  0  0  0  0  0  0  0  0  0  0
    6.9880    2.4420    1.3860 H   0  0  0  0  0  0  0  0  0  0  0  0
    6.5990    0.7370    1.5720 H   0  0  0  0  0  0  0  0  0  0  0  0
    5.4940    1.9640    2.2140 H   0  0  0  0  0  0  0  0  0  0  0  0
    5.5790    4.3030   -0.0780 C   0  0  0  0  0  0  0  0  0  0  0  0
    6.4430    4.2180   -0.7460 H   0  0  0  0  0  0  0  0  0  0  0  0
    5.9460    4.4250    0.9450 H   0  0  0  0  0  0  0  0  0  0  0  0
    5.0440    5.2240   -0.3350 H   0  0  0  0  0  0  0  0  0  0  0  0
    3.9900    3.1130   -1.5830 C   0  0  0  0  0  0  0  0  0  0  0  0
    4.7280    2.9880   -2.3820 H   0  0  0  0  0  0  0  0  0  0  0  0
    3.4760    4.0670   -1.7450 H   0  0  0  0  0  0  0  0  0  0  0  0
    3.2400    2.3240   -1.6860 H   0  0  0  0  0  0  0  0  0  0  0  0
    0.3350   -2.9260    0.9440 H   0  0  0  0  0  0  0  0  0  0  0  0
    2.3740   -3.1490   -0.2710 H   0  0  0  0  0  0  0  0  0  0  0  0
   -1.5080   -0.3130   -0.7350 H   0  0  0  0  0  0  0  0  0  0  0  0
   -1.5530   -2.2120    1.6360 H   0  0  0  0  0  0  0  0  0  0  0  0
   -0.7840    0.7240    1.5860 H   0  0  0  0  0  0  0  0  0  0  0  0
    4.5050   -2.5360   -0.6990 H   0  0  0  0  0  0  0  0  0  0  0  0
   -5.0700    1.5130   -0.9370 H   0  0  0  0  0  0  0  0  0  0  0  0
    6.1680    1.6300   -0.7540 H   0  0  0  0  0  0  0  0  0  0  0  0
  1  4  1  0  0  0  0
  1 10  1  0  0  0  0
  1 11  1  0  0  0  0
  1 42  1  0  0  0  0
  2  3  1  0  0  0  0
  2  5  1  0  0  0  0
  2 24  1  0  0  0  0
  2 46  1  0  0  0  0
  3  7  2  0  0  0  0
  3 30  1  0  0  0  0
  4  6  1  0  0  0  0
  4 17  1  0  0  0  0
  4 76  1  0  0  0  0
  5  6  1  0  0  0  0
  5 14  1  0  0  0  0
  5 78  1  0  0  0  0
  6  9  1  0  0  0  0
  6 79  1  0  0  0  0
  7  8  1  0  0  0  0
  7  9  1  0  0  0  0
  9 52  1  0  0  0  0
  9 80  1  0  0  0  0
 10 27  1  0  0  0  0
 10 34  1  0  0  0  0
 10 77  1  0  0  0  0
 11 12  1  0  0  0  0
 11 13  1  0  0  0  0
 11 14  1  0  0  0  0
 14 15  1  0  0  0  0
 14 16  1  0  0  0  0
 17 18  1  0  0  0  0
 17 19  1  0  0  0  0
 17 27  1  0  0  0  0
 20 21  1  0  0  0  0
 20 22  2  0  0  0  0
 20 34  1  0  0  0  0
 22 23  1  0  0  0  0
 22 38  1  0  0  0  0
 24 25  1  0  0  0  0
 24 26  1  0  0  0  0
 24 39  1  0  0  0  0
 27 28  1  0  0  0  0
 27 29  1  0  0  0  0
 30 31  1  0  0  0  0
 30 32  1  0  0  0  0
 30 36  1  0  0  0  0
 33 35  1  0  0  0  0
 33 37  2  0  0  0  0
 33 56  1  0  0  0  0
 34 60  1  0  0  0  0
 34 81  1  0  0  0  0
 35 36  1  0  0  0  0
 36 39  1  0  0  0  0
 36 82  1  0  0  0  0
 38 50  1  0  0  0  0
 38 64  1  0  0  0  0
 38 83  1  0  0  0  0
 39 40  1  0  0  0  0
 39 41  1  0  0  0  0
 42 43  1  0  0  0  0
 42 44  1  0  0  0  0
 42 45  1  0  0  0  0
 46 47  1  0  0  0  0
 46 48  1  0  0  0  0
 46 49  1  0  0  0  0
 50 51  1  0  0  0  0
 50 68  1  0  0  0  0
 50 72  1  0  0  0  0
 52 53  1  0  0  0  0
 52 54  1  0  0  0  0
 52 55  1  0  0  0  0
 56 57  1  0  0  0  0
 56 58  1  0  0  0  0
 56 59  1  0  0  0  0
 60 61  1  0  0  0  0
 60 62  1  0  0  0  0
 60 63  1  0  0  0  0
 64 65  1  0  0  0  0
 64 66  1  0  0  0  0
 64 67  1  0  0  0  0
 68 69  1  0  0  0  0
 68 70  1  0  0  0  0
 68 71  1  0  0  0  0
 72 73  1  0  0  0  0
 72 74  1  0  0  0  0
 72 75  1  0  0  0  0
M  END
>  <IDNUMBER>
AO-774/41465643

>  <NAME>
Crinosterol, Derivative of

>  <ADD_INFO>
http://www.specs.net/enter.php?specsid=AO-774/41465643

>  <H_ACCEPTORS>
2

>  <H_DONORS>
0

>  <ROTATABLE_BONDS>
6

>  <LOGP>
10.36

>  <LOGS>
-11.37

>  <TPSA>
26.299999

>  <PRICE>
N06

$$$$
AO-774/41465644
  MOE2011           3D

 71 75  0  0  1  0  0  0  0  0999 V2000
    0.2180    0.6880   -0.4410 C   0  0  2  0  0  0  0  0  0  0  0  0
   -4.1970   -0.0220   -0.0370 C   0  0  2  0  0  0  0  0  0  0  0  0
   -1.2240    0.5590    0.2120 C   0  0  3  0  0  0  0  0  0  0  0  0
   -3.2160   -0.9710    0.6820 C   0  0  2  0  0  0  0  0  0  0  0  0
   -1.7410   -0.9170    0.2660 C   0  0  3  0  0  0  0  0  0  0  0  0
    0.9510   -0.6790   -0.3100 C   0  0  2  0  0  0  0  0  0  0  0  0
   -3.6790    1.4070    0.1910 C   0  0  0  0  0  0  0  0  0  0  0  0
   -4.3270    2.1400   -0.2990 H   0  0  0  0  0  0  0  0  0  0  0  0
   -3.6880    1.6510    1.2610 H   0  0  0  0  0  0  0  0  0  0  0  0
   -2.2500    1.5800   -0.3440 C   0  0  0  0  0  0  0  0  0  0  0  0
   -1.9110    2.5950   -0.1020 H   0  0  0  0  0  0  0  0  0  0  0  0
   -2.2970    1.5300   -1.4350 H   0  0  0  0  0  0  0  0  0  0  0  0
    1.0270    1.7600    0.3430 C   0  0  0  0  0  0  0  0  0  0  0  0
    0.5800    2.7520    0.2030 H   0  0  0  0  0  0  0  0  0  0  0  0
    0.9730    1.5470    1.4190 H   0  0  0  0  0  0  0  0  0  0  0  0
   -1.3100   -1.7340   -0.9520 C   0  0  0  0  0  0  0  0  0  0  0  0
   -1.6870   -2.7610   -0.8920 H   0  0  0  0  0  0  0  0  0  0  0  0
   -1.7220   -1.3140   -1.8720 H   0  0  0  0  0  0  0  0  0  0  0  0
   -3.9400   -2.3100    0.7090 C   0  0  0  0  0  0  0  0  0  0  0  0
   -3.8230   -2.8640   -0.2270 H   0  0  0  0  0  0  0  0  0  0  0  0
   -3.5850   -2.9510    1.5220 H   0  0  0  0  0  0  0  0  0  0  0  0
   -5.4980   -0.3810    0.7440 C   0  0  2  0  0  0  0  0  0  0  0  0
    2.4370   -0.6230   -0.6970 C   0  0  0  0  0  0  0  0  0  0  0  0
    2.5670   -0.4510   -1.7720 H   0  0  0  0  0  0  0  0  0  0  0  0
    2.8950   -1.6030   -0.5110 H   0  0  0  0  0  0  0  0  0  0  0  0
    0.2210   -1.7970   -1.0790 C   0  0  0  0  0  0  0  0  0  0  0  0
    0.4910   -1.7820   -2.1430 H   0  0  0  0  0  0  0  0  0  0  0  0
    0.5710   -2.7640   -0.6960 H   0  0  0  0  0  0  0  0  0  0  0  0
    5.4540   -0.3510    0.1370 C   0  0  3  0  0  0  0  0  0  0  0  0
    6.5690   -0.4700   -0.7570 O   0  0  0  0  0  0  0  0  0  0  0  0
   -5.4160   -1.9230    0.8980 C   0  0  0  0  0  0  0  0  0  0  0  0
   -5.7750   -2.2240    1.8890 H   0  0  0  0  0  0  0  0  0  0  0  0
   -6.0320   -2.4440    0.1560 H   0  0  0  0  0  0  0  0  0  0  0  0
    4.5220    0.5980   -0.3830 O   0  0  0  0  0  0  0  0  0  0  0  0
    3.1850    0.4530    0.0990 C   0  0  3  0  0  0  0  0  0  0  0  0
   -7.6950    2.0950    1.0920 O   0  0  0  0  0  0  0  0  0  0  0  0
    2.5030    1.8140   -0.0470 C   0  0  0  0  0  0  0  0  0  0  0  0
    3.0210    2.5470    0.5850 H   0  0  0  0  0  0  0  0  0  0  0  0
    2.6210    2.1890   -1.0710 H   0  0  0  0  0  0  0  0  0  0  0  0
   -7.0580    1.5270    0.2100 C   0  0  0  0  0  0  0  0  0  0  0  0
   -6.5790    2.1040   -0.5980 H   0  0  0  0  0  0  0  0  0  0  0  0
    0.1510    1.1280   -1.9280 C   0  0  0  0  0  0  0  0  0  0  0  0
    1.1260    1.0850   -2.4220 H   0  0  0  0  0  0  0  0  0  0  0  0
   -0.1920    2.1640   -2.0210 H   0  0  0  0  0  0  0  0  0  0  0  0
   -0.5250    0.5010   -2.5160 H   0  0  0  0  0  0  0  0  0  0  0  0
   -4.3740   -0.2940   -1.5450 C   0  0  0  0  0  0  0  0  0  0  0  0
   -5.0860    0.4130   -1.9850 H   0  0  0  0  0  0  0  0  0  0  0  0
   -4.7480   -1.3020   -1.7480 H   0  0  0  0  0  0  0  0  0  0  0  0
   -3.4480   -0.1780   -2.1100 H   0  0  0  0  0  0  0  0  0  0  0  0
   -6.8510    0.0370    0.1670 C   0  0  0  0  0  0  0  0  0  0  0  0
   -7.6560   -0.4170    0.7580 H   0  0  0  0  0  0  0  0  0  0  0  0
   -6.9950   -0.3030   -0.8630 H   0  0  0  0  0  0  0  0  0  0  0  0
    7.5690    0.5120   -0.5170 C   0  0  0  0  0  0  0  0  0  0  0  0
    8.2930    0.4780   -1.3370 H   0  0  0  0  0  0  0  0  0  0  0  0
    7.1200    1.5120   -0.5230 H   0  0  0  0  0  0  0  0  0  0  0  0
    5.8850    0.0470    1.5600 C   0  0  0  0  0  0  0  0  0  0  0  0
    5.7960    1.1340    1.6900 H   0  0  0  0  0  0  0  0  0  0  0  0
    5.2010   -0.3950    2.2940 H   0  0  0  0  0  0  0  0  0  0  0  0
    8.2690    0.2240    0.8080 C   0  0  0  0  0  0  0  0  0  0  0  0
    9.0940   -0.4800    0.6480 H   0  0  0  0  0  0  0  0  0  0  0  0
    8.7190    1.1480    1.1870 H   0  0  0  0  0  0  0  0  0  0  0  0
    7.3170   -0.3790    1.8410 C   0  0  0  0  0  0  0  0  0  0  0  0
    7.6200   -0.0830    2.8510 H   0  0  0  0  0  0  0  0  0  0  0  0
    7.3810   -1.4740    1.7990 H   0  0  0  0  0  0  0  0  0  0  0  0
   -3.1920   -0.6450    1.7380 H   0  0  0  0  0  0  0  0  0  0  0  0
    0.9370   -0.9580    0.7550 H   0  0  0  0  0  0  0  0  0  0  0  0
   -1.1180    0.8310    1.2740 H   0  0  0  0  0  0  0  0  0  0  0  0
   -1.2180   -1.3940    1.1100 H   0  0  0  0  0  0  0  0  0  0  0  0
   -5.4230    0.0540    1.7530 H   0  0  0  0  0  0  0  0  0  0  0  0
    4.9980   -1.3470    0.1590 H   0  0  0  0  0  0  0  0  0  0  0  0
    3.1950    0.1860    1.1630 H   0  0  0  0  0  0  0  0  0  0  0  0
  1  3  1  0  0  0  0
  1  6  1  0  0  0  0
  1 13  1  0  0  0  0
  1 42  1  0  0  0  0
  2  4  1  0  0  0  0
  2  7  1  0  0  0  0
  2 22  1  0  0  0  0
  2 46  1  0  0  0  0
  3  5  1  0  0  0  0
  3 10  1  0  0  0  0
  3 67  1  0  0  0  0
  4  5  1  0  0  0  0
  4 19  1  0  0  0  0
  4 65  1  0  0  0  0
  5 16  1  0  0  0  0
  5 68  1  0  0  0  0
  6 23  1  0  0  0  0
  6 26  1  0  0  0  0
  6 66  1  0  0  0  0
  7  8  1  0  0  0  0
  7  9  1  0  0  0  0
  7 10  1  0  0  0  0
 10 11  1  0  0  0  0
 10 12  1  0  0  0  0
 13 14  1  0  0  0  0
 13 15  1  0  0  0  0
 13 37  1  0  0  0  0
 16 17  1  0  0  0  0
 16 18  1  0  0  0  0
 16 26  1  0  0  0  0
 19 20  1  0  0  0  0
 19 21  1  0  0  0  0
 19 31  1  0  0  0  0
 22 31  1  0  0  0  0
 22 50  1  0  0  0  0
 22 69  1  0  0  0  0
 23 24  1  0  0  0  0
 23 25  1  0  0  0  0
 23 35  1  0  0  0  0
 26 27  1  0  0  0  0
 26 28  1  0  0  0  0
 29 30  1  0  0  0  0
 29 34  1  0  0  0  0
 29 56  1  0  0  0  0
 29 70  1  0  0  0  0
 30 53  1  0  0  0  0
 31 32  1  0  0  0  0
 31 33  1  0  0  0  0
 34 35  1  0  0  0  0
 35 37  1  0  0  0  0
 35 71  1  0  0  0  0
 36 40  2  0  0  0  0
 37 38  1  0  0  0  0
 37 39  1  0  0  0  0
 40 41  1  0  0  0  0
 40 50  1  0  0  0  0
 42 43  1  0  0  0  0
 42 44  1  0  0  0  0
 42 45  1  0  0  0  0
 46 47  1  0  0  0  0
 46 48  1  0  0  0  0
 46 49  1  0  0  0  0
 50 51  1  0  0  0  0
 50 52  1  0  0  0  0
 53 54  1  0  0  0  0
 53 55  1  0  0  0  0
 53 59  1  0  0  0  0
 56 57  1  0  0  0  0
 56 58  1  0  0  0  0
 56 62  1  0  0  0  0
 59 60  1  0  0  0  0
 59 61  1  0  0  0  0
 59 62  1  0  0  0  0
 62 63  1  0  0  0  0
 62 64  1  0  0  0  0
M  END
>  <IDNUMBER>
AO-774/41465644

>  <NAME>
3-(tetrahydro-2H-pyran-2-yloxy)pregnan-21-al

>  <ADD_INFO>
http://www.specs.net/enter.php?specsid=AO-774/41465644

>  <H_ACCEPTORS>
3

>  <H_DONORS>
0

>  <ROTATABLE_BONDS>
4

>  <LOGP>
6.2600002

>  <LOGS>
-7.48

>  <TPSA>
35.529999

>  <PRICE>
N06

$$$$
AO-774/41465647
  MOE2011           3D

 45 47  0  0  0  0  0  0  0  0999 V2000
   -0.1080    0.0000    0.7900 C   0  0  0  0  0  0  0  0  0  0  0  0
   -1.5810   -0.1630    0.7290 C   0  0  0  0  0  0  0  0  0  0  0  0
   -2.4390    1.0150    0.4550 C   0  0  0  0  0  0  0  0  0  0  0  0
    0.4590    1.2580    0.5850 C   0  0  0  0  0  0  0  0  0  0  0  0
   -0.3880    2.4260    0.2810 C   0  0  0  0  0  0  0  0  0  0  0  0
   -1.8520    2.2620    0.2320 C   0  0  0  0  0  0  0  0  0  0  0  0
    0.7520   -1.0790    1.0460 C   0  0  0  0  0  0  0  0  0  0  0  0
   -3.8390    0.9260    0.4040 C   0  0  0  0  0  0  0  0  0  0  0  0
    0.2780   -2.3760    1.2670 O   0  0  0  0  0  0  0  0  0  0  0  0
   -4.5280   -0.2730    0.6830 O   0  0  0  0  0  0  0  0  0  0  0  0
    1.8500    1.4390    0.6600 C   0  0  0  0  0  0  0  0  0  0  0  0
    2.2760    2.4260    0.4860 H   0  0  0  0  0  0  0  0  0  0  0  0
    0.0430   -3.0650    0.0810 C   0  0  0  0  0  0  0  0  0  0  0  0
   -4.8670   -1.1900   -0.3110 C   0  0  0  0  0  0  0  0  0  0  0  0
   -2.0910   -1.2640    0.8920 O   0  0  0  0  0  0  0  0  0  0  0  0
    2.1370   -0.9030    1.1430 C   0  0  0  0  0  0  0  0  0  0  0  0
    2.7740   -1.7600    1.3520 H   0  0  0  0  0  0  0  0  0  0  0  0
    0.1180    3.5230    0.0750 O   0  0  0  0  0  0  0  0  0  0  0  0
    6.0500    0.4750   -0.4110 C   0  0  0  0  0  0  0  0  0  0  0  0
    2.6980    0.3630    0.9530 C   0  0  0  0  0  0  0  0  0  0  0  0
    0.2690   -2.6660   -1.0540 O   0  0  0  0  0  0  0  0  0  0  0  0
   -5.5550   -2.1760   -0.0610 O   0  0  0  0  0  0  0  0  0  0  0  0
    6.7990    0.8190    0.4920 O   0  0  0  0  0  0  0  0  0  0  0  0
    4.7060    0.2990   -0.3010 O   0  0  0  0  0  0  0  0  0  0  0  0
   -2.6470    3.3890   -0.0330 C   0  0  0  0  0  0  0  0  0  0  0  0
   -2.1880    4.3620   -0.2060 H   0  0  0  0  0  0  0  0  0  0  0  0
    4.1890    0.5580    1.0070 C   0  0  0  0  0  0  0  0  0  0  0  0
    4.6330   -0.1360    1.7320 H   0  0  0  0  0  0  0  0  0  0  0  0
    4.4260    1.5840    1.3140 H   0  0  0  0  0  0  0  0  0  0  0  0
   -4.6370    2.0480    0.1640 C   0  0  0  0  0  0  0  0  0  0  0  0
   -5.7210    1.9630    0.1600 H   0  0  0  0  0  0  0  0  0  0  0  0
   -4.0360    3.2810   -0.0650 C   0  0  0  0  0  0  0  0  0  0  0  0
   -4.6470    4.1600   -0.2580 H   0  0  0  0  0  0  0  0  0  0  0  0
   -4.3640   -0.8910   -1.6950 C   0  0  0  0  0  0  0  0  0  0  0  0
   -3.2720   -0.8690   -1.7150 H   0  0  0  0  0  0  0  0  0  0  0  0
   -4.7900    0.0430   -2.0670 H   0  0  0  0  0  0  0  0  0  0  0  0
   -4.6870   -1.6930   -2.3670 H   0  0  0  0  0  0  0  0  0  0  0  0
   -0.5280   -4.4120    0.4080 C   0  0  0  0  0  0  0  0  0  0  0  0
   -1.4720   -4.2940    0.9450 H   0  0  0  0  0  0  0  0  0  0  0  0
    0.1880   -4.9830    1.0050 H   0  0  0  0  0  0  0  0  0  0  0  0
   -0.7230   -4.9570   -0.5210 H   0  0  0  0  0  0  0  0  0  0  0  0
    6.4900    0.1840   -1.8130 C   0  0  0  0  0  0  0  0  0  0  0  0
    6.2700   -0.8570   -2.0620 H   0  0  0  0  0  0  0  0  0  0  0  0
    7.5690    0.3420   -1.8940 H   0  0  0  0  0  0  0  0  0  0  0  0
    5.9870    0.8610   -2.5070 H   0  0  0  0  0  0  0  0  0  0  0  0
  1  2  1  0  0  0  0
  1  4  2  0  0  0  0
  1  7  1  0  0  0  0
  2  3  1  0  0  0  0
  2 15  2  0  0  0  0
  3  6  2  0  0  0  0
  3  8  1  0  0  0  0
  4  5  1  0  0  0  0
  4 11  1  0  0  0  0
  5  6  1  0  0  0  0
  5 18  2  0  0  0  0
  6 25  1  0  0  0  0
  7  9  1  0  0  0  0
  7 16  2  0  0  0  0
  8 10  1  0  0  0  0
  8 30  2  0  0  0  0
  9 13  1  0  0  0  0
 10 14  1  0  0  0  0
 11 12  1  0  0  0  0
 11 20  2  0  0  0  0
 13 21  2  0  0  0  0
 13 38  1  0  0  0  0
 14 22  2  0  0  0  0
 14 34  1  0  0  0  0
 16 17  1  0  0  0  0
 16 20  1  0  0  0  0
 19 23  2  0  0  0  0
 19 24  1  0  0  0  0
 19 42  1  0  0  0  0
 20 27  1  0  0  0  0
 24 27  1  0  0  0  0
 25 26  1  0  0  0  0
 25 32  2  0  0  0  0
 27 28  1  0  0  0  0
 27 29  1  0  0  0  0
 30 31  1  0  0  0  0
 30 32  1  0  0  0  0
 32 33  1  0  0  0  0
 34 35  1  0  0  0  0
 34 36  1  0  0  0  0
 34 37  1  0  0  0  0
 38 39  1  0  0  0  0
 38 40  1  0  0  0  0
 38 41  1  0  0  0  0
 42 43  1  0  0  0  0
 42 44  1  0  0  0  0
 42 45  1  0  0  0  0
M  END
>  <IDNUMBER>
AO-774/41465647

>  <NAME>
Aloe emodin (Rottlerin), Derivative of

>  <ADD_INFO>
http://www.specs.net/enter.php?specsid=AO-774/41465647

>  <H_ACCEPTORS>
6

>  <H_DONORS>
0

>  <ROTATABLE_BONDS>
7

>  <LOGP>
2.6300001

>  <LOGS>
-5.4400001

>  <TPSA>
113.04

>  <PRICE>
N06

$$$$
AO-774/41465648
  MOE2011           3D

 25 27  0  0  0  0  0  0  0  0999 V2000
   -0.0860   -1.2970    0.0130 C   0  0  0  0  0  0  0  0  0  0  0  0
   -1.3680   -0.5420    0.0050 C   0  0  0  0  0  0  0  0  0  0  0  0
    1.2010   -0.5750    0.0050 C   0  0  0  0  0  0  0  0  0  0  0  0
   -0.0170    1.5820    0.0100 C   0  0  0  0  0  0  0  0  0  0  0  0
    1.2370    0.8130    0.0030 C   0  0  0  0  0  0  0  0  0  0  0  0
   -1.3090    0.8610    0.0050 C   0  0  0  0  0  0  0  0  0  0  0  0
   -0.0150   -2.5220    0.0260 O   0  0  0  0  0  0  0  0  0  0  0  0
   -2.6330   -1.1600   -0.0020 C   0  0  0  0  0  0  0  0  0  0  0  0
    2.4060   -1.2940    0.0000 C   0  0  0  0  0  0  0  0  0  0  0  0
    0.0150    2.8070    0.0180 O   0  0  0  0  0  0  0  0  0  0  0  0
    2.4670    1.4840   -0.0050 C   0  0  0  0  0  0  0  0  0  0  0  0
    2.5030    2.5720   -0.0060 H   0  0  0  0  0  0  0  0  0  0  0  0
   -2.4820    1.6300    0.0010 C   0  0  0  0  0  0  0  0  0  0  0  0
   -2.4320    2.7180    0.0010 H   0  0  0  0  0  0  0  0  0  0  0  0
   -2.9260   -3.0400   -0.0080 Br  0  0  0  0  0  0  0  0  0  0  0  0
    2.4310   -2.6650    0.0040 O   0  0  0  0  0  0  0  0  0  0  0  0
    1.4860   -2.9660    0.0140 H   0  0  0  0  0  0  0  0  0  0  0  0
    3.6600    0.7600   -0.0110 C   0  0  0  0  0  0  0  0  0  0  0  0
    4.6140    1.2820   -0.0170 H   0  0  0  0  0  0  0  0  0  0  0  0
   -3.7240    1.0100   -0.0050 C   0  0  0  0  0  0  0  0  0  0  0  0
   -4.6330    1.6070   -0.0090 H   0  0  0  0  0  0  0  0  0  0  0  0
   -3.7990   -0.3790   -0.0070 C   0  0  0  0  0  0  0  0  0  0  0  0
   -4.7810   -0.8490   -0.0140 H   0  0  0  0  0  0  0  0  0  0  0  0
    3.6300   -0.6340   -0.0090 C   0  0  0  0  0  0  0  0  0  0  0  0
    4.5550   -1.2030   -0.0140 H   0  0  0  0  0  0  0  0  0  0  0  0
  1  2  1  0  0  0  0
  1  3  1  0  0  0  0
  1  7  2  0  0  0  0
  2  6  2  0  0  0  0
  2  8  1  0  0  0  0
  3  5  2  0  0  0  0
  3  9  1  0  0  0  0
  4  5  1  0  0  0  0
  4  6  1  0  0  0  0
  4 10  2  0  0  0  0
  5 11  1  0  0  0  0
  6 13  1  0  0  0  0
  8 15  1  0  0  0  0
  8 22  2  0  0  0  0
  9 16  1  0  0  0  0
  9 24  2  0  0  0  0
 11 12  1  0  0  0  0
 11 18  2  0  0  0  0
 13 14  1  0  0  0  0
 13 20  2  0  0  0  0
 16 17  1  0  0  0  0
 18 19  1  0  0  0  0
 18 24  1  0  0  0  0
 20 21  1  0  0  0  0
 20 22  1  0  0  0  0
 22 23  1  0  0  0  0
 24 25  1  0  0  0  0
M  END
>  <IDNUMBER>
AO-774/41465648

>  <NAME>
1-bromo-8-hydroxyanthra-9,10-quinone

>  <ADD_INFO>
http://www.specs.net/enter.php?specsid=AO-774/41465648

>  <H_ACCEPTORS>
2

>  <H_DONORS>
1

>  <ROTATABLE_BONDS>
0

>  <LOGP>
4.5300002

>  <LOGS>
-5.8099999

>  <TPSA>
54.369999

>  <PRICE>
N06

$$$$
AO-774/41465653
  MOE2011           3D

 29 29  0  0  1  0  0  0  0  0999 V2000
    3.4280    0.2700    0.3160 S   0  0  0  0  0  0  0  0  0  0  0  0
    0.7510    0.8890    0.5600 C   0  0  1  0  0  0  0  0  0  0  0  0
   -2.1630    0.5140    0.0870 C   0  0  2  0  0  0  0  0  0  0  0  0
   -1.3170   -0.3920    0.9930 C   0  0  2  0  0  0  0  0  0  0  0  0
   -0.1820    1.9680    0.3080 O   0  0  0  0  0  0  0  0  0  0  0  0
    0.1030   -0.5130    0.4220 C   0  0  1  0  0  0  0  0  0  0  0  0
    1.9950    1.1210   -0.2940 C   0  0  0  0  0  0  0  0  0  0  0  0
    2.2460    2.1890   -0.2980 H   0  0  0  0  0  0  0  0  0  0  0  0
    1.8460    0.8330   -1.3390 H   0  0  0  0  0  0  0  0  0  0  0  0
   -1.3000    1.6450   -0.5170 C   0  0  1  0  0  0  0  0  0  0  0  0
    3.5440    0.7430    1.6940 O   0  0  0  0  0  0  0  0  0  0  0  0
    4.4850    0.7310   -0.5810 O   0  0  0  0  0  0  0  0  0  0  0  0
    3.0870   -1.1430    0.1800 O   0  5  0  0  0  0  0  0  0  0  0  0
   -3.2290    1.0620    0.8780 O   0  0  0  0  0  0  0  0  0  0  0  0
   -3.8740    0.3470    1.0130 H   0  0  0  0  0  0  0  0  0  0  0  0
   -1.9460   -1.6710    1.1140 O   0  0  0  0  0  0  0  0  0  0  0  0
   -2.5800   -1.6160    1.8500 H   0  0  0  0  0  0  0  0  0  0  0  0
   -0.8770    1.3410   -1.8430 O   0  0  0  0  0  0  0  0  0  0  0  0
   -0.5100    0.4280   -1.8010 H   0  0  0  0  0  0  0  0  0  0  0  0
    0.0340   -0.8610   -0.9810 O   0  0  0  0  0  0  0  0  0  0  0  0
    0.1240   -2.2650   -1.2020 C   0  0  0  0  0  0  0  0  0  0  0  0
    0.1090   -2.4380   -2.2820 H   0  0  0  0  0  0  0  0  0  0  0  0
   -0.7270   -2.7890   -0.7610 H   0  0  0  0  0  0  0  0  0  0  0  0
    1.0610   -2.6640   -0.8040 H   0  0  0  0  0  0  0  0  0  0  0  0
    1.0160    1.0210    1.6160 H   0  0  0  0  0  0  0  0  0  0  0  0
   -2.6400   -0.0600   -0.7170 H   0  0  0  0  0  0  0  0  0  0  0  0
   -1.2640    0.0180    2.0100 H   0  0  0  0  0  0  0  0  0  0  0  0
    0.6840   -1.2640    0.9680 H   0  0  0  0  0  0  0  0  0  0  0  0
   -1.9020    2.5570   -0.5910 H   0  0  0  0  0  0  0  0  0  0  0  0
  1  7  1  0  0  0  0
  1 11  2  0  0  0  0
  1 12  2  0  0  0  0
  1 13  1  0  0  0  0
  2  5  1  0  0  0  0
  2  6  1  0  0  0  0
  2  7  1  0  0  0  0
  2 25  1  0  0  0  0
  3  4  1  0  0  0  0
  3 10  1  0  0  0  0
  3 14  1  0  0  0  0
  3 26  1  0  0  0  0
  4  6  1  0  0  0  0
  4 16  1  0  0  0  0
  4 27  1  0  0  0  0
  5 10  1  0  0  0  0
  6 20  1  0  0  0  0
  6 28  1  0  0  0  0
  7  8  1  0  0  0  0
  7  9  1  0  0  0  0
 10 18  1  0  0  0  0
 10 29  1  0  0  0  0
 14 15  1  0  0  0  0
 16 17  1  0  0  0  0
 18 19  1  0  0  0  0
 20 21  1  0  0  0  0
 21 22  1  0  0  0  0
 21 23  1  0  0  0  0
 21 24  1  0  0  0  0
M  CHG  1  13  -1
M  END
>  <IDNUMBER>
AO-774/41465653

>  <NAME>
6-deoxy-4-O-methyl-6-sulfonatohexopyranose

>  <ADD_INFO>
http://www.specs.net/enter.php?specsid=AO-774/41465653

>  <H_ACCEPTORS>
8

>  <H_DONORS>
3

>  <ROTATABLE_BONDS>
3

>  <LOGP>
-4.75

>  <LOGS>
0.58999997

>  <TPSA>
144.73

>  <PRICE>
N06

>  <SALTDATA>
Na+

$$$$
AO-774/41465654
  MOE2011           3D

 89 94  0  0  1  0  0  0  0  0999 V2000
   -4.4660    1.6980    0.4990 S   0  0  0  0  0  0  0  0  0  0  0  0
    4.3410    1.5700    0.2350 C   0  0  1  0  0  0  0  0  0  0  0  0
    4.9100    0.1380   -0.1230 C   0  0  1  0  0  0  0  0  0  0  0  0
   -6.4960    0.1540   -0.6890 C   0  0  2  0  0  0  0  0  0  0  0  0
    0.5750    1.1880   -0.8490 C   0  0  2  0  0  0  0  0  0  0  0  0
   -7.2360   -2.2990    0.7520 C   0  0  1  0  0  0  0  0  0  0  0  0
   -7.2820   -0.9480    1.4600 C   0  0  1  0  0  0  0  0  0  0  0  0
    2.7970    1.6360    0.3810 C   0  0  3  0  0  0  0  0  0  0  0  0
    2.1280    0.9210   -0.8170 C   0  0  3  0  0  0  0  0  0  0  0  0
   -5.7000   -1.0420   -0.6840 O   0  0  0  0  0  0  0  0  0  0  0  0
   -5.5890    1.3670   -0.8590 C   0  0  0  0  0  0  0  0  0  0  0  0
   -6.1770    2.2780   -1.0160 H   0  0  0  0  0  0  0  0  0  0  0  0
   -4.9690    1.2280   -1.7520 H   0  0  0  0  0  0  0  0  0  0  0  0
   -7.5050    0.1960    0.4740 C   0  0  1  0  0  0  0  0  0  0  0  0
    7.0670   -1.1150    0.7410 C   0  0  0  0  0  0  0  0  0  0  0  0
   -6.4980   -2.2240   -0.6020 C   0  0  1  0  0  0  0  0  0  0  0  0
    5.9640   -0.1300    1.0120 C   0  0  1  0  0  0  0  0  0  0  0  0
    8.3700   -0.8770    0.5840 C   0  0  0  0  0  0  0  0  0  0  0  0
    8.9010    0.0580    0.5890 H   0  0  0  0  0  0  0  0  0  0  0  0
   -0.0820    0.9790    0.5580 C   0  0  1  0  0  0  0  0  0  0  0  0
    9.0310   -2.1690    0.4080 C   0  0  0  0  0  0  0  0  0  0  0  0
    5.1320    2.0590    1.4630 C   0  0  0  0  0  0  0  0  0  0  0  0
    5.3240    3.1370    1.4510 H   0  0  0  0  0  0  0  0  0  0  0  0
    4.6380    1.8210    2.4090 H   0  0  0  0  0  0  0  0  0  0  0  0
    3.8020   -0.9360   -0.1020 C   0  0  0  0  0  0  0  0  0  0  0  0
    4.1780   -1.8910   -0.4870 H   0  0  0  0  0  0  0  0  0  0  0  0
    3.5100   -1.1510    0.9320 H   0  0  0  0  0  0  0  0  0  0  0  0
   -2.9830    1.6750   -0.3080 N   0  0  3  0  0  0  0  0  0  0  0  0
   -2.4150    2.5130   -0.1750 H   0  0  0  0  0  0  0  0  0  0  0  0
    2.5420   -0.5680   -0.8910 C   0  0  0  0  0  0  0  0  0  0  0  0
    1.7420   -1.2290   -0.5450 H   0  0  0  0  0  0  0  0  0  0  0  0
    2.6960   -0.8280   -1.9470 H   0  0  0  0  0  0  0  0  0  0  0  0
    8.1010   -3.1580    0.4870 O   0  0  0  0  0  0  0  0  0  0  0  0
    6.4370    1.2800    1.3920 C   0  0  0  0  0  0  0  0  0  0  0  0
    6.9650    1.2970    2.3510 H   0  0  0  0  0  0  0  0  0  0  0  0
    7.0950    1.7130    0.6290 H   0  0  0  0  0  0  0  0  0  0  0  0
   -0.1200    0.3200   -1.9350 C   0  0  0  0  0  0  0  0  0  0  0  0
    0.2920    0.5530   -2.9250 H   0  0  0  0  0  0  0  0  0  0  0  0
    0.0850   -0.7430   -1.7700 H   0  0  0  0  0  0  0  0  0  0  0  0
    2.2160    1.1700    1.7270 C   0  0  0  0  0  0  0  0  0  0  0  0
    2.9110    0.5190    2.2680 H   0  0  0  0  0  0  0  0  0  0  0  0
    2.0880    2.0540    2.3660 H   0  0  0  0  0  0  0  0  0  0  0  0
   -4.4540    0.6240    1.4660 O   0  0  0  0  0  0  0  0  0  0  0  0
   -4.6410    3.0770    0.9100 O   0  0  0  0  0  0  0  0  0  0  0  0
    6.8110   -2.5750    0.6840 C   0  0  0  0  0  0  0  0  0  0  0  0
    6.1750   -2.8610   -0.1560 H   0  0  0  0  0  0  0  0  0  0  0  0
    6.3880   -2.9560    1.6180 H   0  0  0  0  0  0  0  0  0  0  0  0
   -1.3220    0.0580    0.5160 C   0  0  0  0  0  0  0  0  0  0  0  0
   -1.8250    0.0940    1.4910 H   0  0  0  0  0  0  0  0  0  0  0  0
   -0.9960   -0.9830    0.3860 H   0  0  0  0  0  0  0  0  0  0  0  0
    0.8780    0.4410    1.6330 C   0  0  0  0  0  0  0  0  0  0  0  0
    0.3880    0.4870    2.6150 H   0  0  0  0  0  0  0  0  0  0  0  0
    1.0670   -0.6250    1.4630 H   0  0  0  0  0  0  0  0  0  0  0  0
   -2.3100    0.3940   -0.6000 C   0  0  2  0  0  0  0  0  0  0  0  0
   10.2260   -2.3220    0.2300 O   0  0  0  0  0  0  0  0  0  0  0  0
    4.6810    2.4770   -0.8340 O   0  0  0  0  0  0  0  0  0  0  0  0
    4.4380    3.3780   -0.5640 H   0  0  0  0  0  0  0  0  0  0  0  0
   -6.5980   -3.2340    1.6410 O   0  0  0  0  0  0  0  0  0  0  0  0
   -5.9890   -3.7440    1.0620 H   0  0  0  0  0  0  0  0  0  0  0  0
   -8.3450   -0.9340    2.4240 O   0  0  0  0  0  0  0  0  0  0  0  0
   -8.1830   -1.7090    2.9970 H   0  0  0  0  0  0  0  0  0  0  0  0
   -7.4890    1.4450    1.1580 O   0  0  0  0  0  0  0  0  0  0  0  0
   -7.9710    1.2900    1.9950 H   0  0  0  0  0  0  0  0  0  0  0  0
   -5.6990   -3.4110   -0.7090 O   0  0  0  0  0  0  0  0  0  0  0  0
   -1.6430    0.4780   -1.9790 C   0  0  0  0  0  0  0  0  0  0  0  0
   -2.0430   -0.3260   -2.6110 H   0  0  0  0  0  0  0  0  0  0  0  0
   -1.9120    1.4060   -2.4980 H   0  0  0  0  0  0  0  0  0  0  0  0
    5.5780    0.1120   -1.5220 C   0  0  0  0  0  0  0  0  0  0  0  0
    5.9330   -0.8920   -1.7810 H   0  0  0  0  0  0  0  0  0  0  0  0
    6.4400    0.7860   -1.5750 H   0  0  0  0  0  0  0  0  0  0  0  0
    4.8740    0.4070   -2.3090 H   0  0  0  0  0  0  0  0  0  0  0  0
    0.3700    2.6790   -1.2660 C   0  0  0  0  0  0  0  0  0  0  0  0
   -0.6850    2.9360   -1.3920 H   0  0  0  0  0  0  0  0  0  0  0  0
    0.8670    2.8930   -2.2190 H   0  0  0  0  0  0  0  0  0  0  0  0
    0.7630    3.3780   -0.5220 H   0  0  0  0  0  0  0  0  0  0  0  0
   -5.0470   -3.5020   -1.9700 C   0  0  0  0  0  0  0  0  0  0  0  0
   -4.5080   -4.4520   -2.0070 H   0  0  0  0  0  0  0  0  0  0  0  0
   -4.3230   -2.6900   -2.0900 H   0  0  0  0  0  0  0  0  0  0  0  0
   -5.7760   -3.4820   -2.7860 H   0  0  0  0  0  0  0  0  0  0  0  0
   -0.4230    1.9560    0.9280 H   0  0  0  0  0  0  0  0  0  0  0  0
   -7.0880    0.1090   -1.6140 H   0  0  0  0  0  0  0  0  0  0  0  0
   -8.2440   -2.6990    0.5910 H   0  0  0  0  0  0  0  0  0  0  0  0
   -6.3710   -0.7850    2.0420 H   0  0  0  0  0  0  0  0  0  0  0  0
    2.5440    2.7010    0.3100 H   0  0  0  0  0  0  0  0  0  0  0  0
    2.5360    1.3750   -1.7330 H   0  0  0  0  0  0  0  0  0  0  0  0
   -8.5180    0.1090    0.0580 H   0  0  0  0  0  0  0  0  0  0  0  0
   -7.2320   -2.2130   -1.4180 H   0  0  0  0  0  0  0  0  0  0  0  0
    5.4300   -0.5140    1.8950 H   0  0  0  0  0  0  0  0  0  0  0  0
   -3.0700   -0.3950   -0.6460 H   0  0  0  0  0  0  0  0  0  0  0  0
  1 11  1  0  0  0  0
  1 28  1  0  0  0  0
  1 43  2  0  0  0  0
  1 44  2  0  0  0  0
  2  3  1  0  0  0  0
  2  8  1  0  0  0  0
  2 22  1  0  0  0  0
  2 56  1  0  0  0  0
  3 17  1  0  0  0  0
  3 25  1  0  0  0  0
  3 68  1  0  0  0  0
  4 10  1  0  0  0  0
  4 11  1  0  0  0  0
  4 14  1  0  0  0  0
  4 81  1  0  0  0  0
  5  9  1  0  0  0  0
  5 20  1  0  0  0  0
  5 37  1  0  0  0  0
  5 72  1  0  0  0  0
  6  7  1  0  0  0  0
  6 16  1  0  0  0  0
  6 58  1  0  0  0  0
  6 82  1  0  0  0  0
  7 14  1  0  0  0  0
  7 60  1  0  0  0  0
  7 83  1  0  0  0  0
  8  9  1  0  0  0  0
  8 40  1  0  0  0  0
  8 84  1  0  0  0  0
  9 30  1  0  0  0  0
  9 85  1  0  0  0  0
 10 16  1  0  0  0  0
 11 12  1  0  0  0  0
 11 13  1  0  0  0  0
 14 62  1  0  0  0  0
 14 86  1  0  0  0  0
 15 17  1  0  0  0  0
 15 18  2  0  0  0  0
 15 45  1  0  0  0  0
 16 64  1  0  0  0  0
 16 87  1  0  0  0  0
 17 34  1  0  0  0  0
 17 88  1  0  0  0  0
 18 19  1  0  0  0  0
 18 21  1  0  0  0  0
 20 48  1  0  0  0  0
 20 51  1  0  0  0  0
 20 80  1  0  0  0  0
 21 33  1  0  0  0  0
 21 55  2  0  0  0  0
 22 23  1  0  0  0  0
 22 24  1  0  0  0  0
 22 34  1  0  0  0  0
 25 26  1  0  0  0  0
 25 27  1  0  0  0  0
 25 30  1  0  0  0  0
 28 29  1  0  0  0  0
 28 54  1  0  0  0  0
 30 31  1  0  0  0  0
 30 32  1  0  0  0  0
 33 45  1  0  0  0  0
 34 35  1  0  0  0  0
 34 36  1  0  0  0  0
 37 38  1  0  0  0  0
 37 39  1  0  0  0  0
 37 65  1  0  0  0  0
 40 41  1  0  0  0  0
 40 42  1  0  0  0  0
 40 51  1  0  0  0  0
 45 46  1  0  0  0  0
 45 47  1  0  0  0  0
 48 49  1  0  0  0  0
 48 50  1  0  0  0  0
 48 54  1  0  0  0  0
 51 52  1  0  0  0  0
 51 53  1  0  0  0  0
 54 65  1  0  0  0  0
 54 89  1  0  0  0  0
 56 57  1  0  0  0  0
 58 59  1  0  0  0  0
 60 61  1  0  0  0  0
 62 63  1  0  0  0  0
 64 76  1  0  0  0  0
 65 66  1  0  0  0  0
 65 67  1  0  0  0  0
 68 69  1  0  0  0  0
 68 70  1  0  0  0  0
 68 71  1  0  0  0  0
 72 73  1  0  0  0  0
 72 74  1  0  0  0  0
 72 75  1  0  0  0  0
 76 77  1  0  0  0  0
 76 78  1  0  0  0  0
 76 79  1  0  0  0  0
M  END
>  <IDNUMBER>
AO-774/41465654

>  <NAME>
N-[14-hydroxy-10,13-dimethyl-17-(5-oxo-2,5-dihydrofuran-3-yl)hexadecahydro-1H-cyclopenta[a]phenanthren-3-yl](3,4,5-trihydroxy-6-methoxytetrahydro-2H-pyran-2-yl)methanesulfonamide

>  <ADD_INFO>
http://www.specs.net/enter.php?specsid=AO-774/41465654

>  <H_ACCEPTORS>
11

>  <H_DONORS>
5

>  <ROTATABLE_BONDS>
6

>  <LOGP>
1.34

>  <LOGS>
-4.8200002

>  <TPSA>
180.23

>  <PRICE>
N06

$$$$
AP-065/43441401
  MOE2011           3D

 30 31  0  0  0  0  0  0  0  0999 V2000
   -0.5430   -0.2290    0.0050 C   0  0  0  0  0  0  0  0  0  0  0  0
   -0.2660    1.1450    0.0030 C   0  0  0  0  0  0  0  0  0  0  0  0
   -1.9540   -0.6760    0.0040 C   0  0  0  0  0  0  0  0  0  0  0  0
   -2.9350    0.2420    0.0010 C   0  0  0  0  0  0  0  0  0  0  0  0
   -3.9880   -0.0060    0.0000 H   0  0  0  0  0  0  0  0  0  0  0  0
   -1.3310    2.0590    0.0000 N   0  0  0  0  0  0  0  0  0  0  0  0
   -1.1050    3.0480   -0.0020 H   0  0  0  0  0  0  0  0  0  0  0  0
   -2.6470    1.6960   -0.0010 C   0  0  0  0  0  0  0  0  0  0  0  0
    1.0520    1.6290    0.0030 C   0  0  0  0  0  0  0  0  0  0  0  0
    2.1030    0.7130    0.0040 C   0  0  0  0  0  0  0  0  0  0  0  0
    3.1400    1.0350    0.0040 H   0  0  0  0  0  0  0  0  0  0  0  0
    0.5320   -1.1300    0.0060 C   0  0  0  0  0  0  0  0  0  0  0  0
    0.3200   -2.1950    0.0080 H   0  0  0  0  0  0  0  0  0  0  0  0
    1.8500   -0.6650    0.0050 C   0  0  0  0  0  0  0  0  0  0  0  0
   -3.5630    2.5110   -0.0040 O   0  0  0  0  0  0  0  0  0  0  0  0
   -2.1200   -2.0450    0.0050 O   0  0  0  0  0  0  0  0  0  0  0  0
    1.1840    2.9950    0.0030 O   0  0  0  0  0  0  0  0  0  0  0  0
    2.9750   -1.4460    0.0050 O   0  0  0  0  0  0  0  0  0  0  0  0
   -3.4490   -2.5540    0.0030 C   0  0  0  0  0  0  0  0  0  0  0  0
   -3.3910   -3.6470    0.0030 H   0  0  0  0  0  0  0  0  0  0  0  0
   -3.9850   -2.2450   -0.9010 H   0  0  0  0  0  0  0  0  0  0  0  0
   -3.9880   -2.2450    0.9040 H   0  0  0  0  0  0  0  0  0  0  0  0
    2.5080    3.5160    0.0010 C   0  0  0  0  0  0  0  0  0  0  0  0
    2.4370    4.6080   -0.0020 H   0  0  0  0  0  0  0  0  0  0  0  0
    3.0500    3.2150   -0.9010 H   0  0  0  0  0  0  0  0  0  0  0  0
    3.0490    3.2210    0.9060 H   0  0  0  0  0  0  0  0  0  0  0  0
    2.7820   -2.8560   -0.0120 C   0  0  0  0  0  0  0  0  0  0  0  0
    3.7690   -3.3280   -0.0180 H   0  0  0  0  0  0  0  0  0  0  0  0
    2.2570   -3.1720   -0.9200 H   0  0  0  0  0  0  0  0  0  0  0  0
    2.2580   -3.1930    0.8880 H   0  0  0  0  0  0  0  0  0  0  0  0
  1  2  2  0  0  0  0
  1  3  1  0  0  0  0
  1 12  1  0  0  0  0
  2  6  1  0  0  0  0
  2  9  1  0  0  0  0
  3  4  2  0  0  0  0
  3 16  1  0  0  0  0
  4  5  1  0  0  0  0
  4  8  1  0  0  0  0
  6  7  1  0  0  0  0
  6  8  1  0  0  0  0
  8 15  2  0  0  0  0
  9 10  2  0  0  0  0
  9 17  1  0  0  0  0
 10 11  1  0  0  0  0
 10 14  1  0  0  0  0
 12 13  1  0  0  0  0
 12 14  2  0  0  0  0
 14 18  1  0  0  0  0
 16 19  1  0  0  0  0
 17 23  1  0  0  0  0
 18 27  1  0  0  0  0
 19 20  1  0  0  0  0
 19 21  1  0  0  0  0
 19 22  1  0  0  0  0
 23 24  1  0  0  0  0
 23 25  1  0  0  0  0
 23 26  1  0  0  0  0
 27 28  1  0  0  0  0
 27 29  1  0  0  0  0
 27 30  1  0  0  0  0
M  END
>  <IDNUMBER>
AP-065/43441401

>  <NAME>
Halfordamine

>  <ADD_INFO>
http://www.specs.net/enter.php?specsid=AP-065/43441401

>  <H_ACCEPTORS>
3

>  <H_DONORS>
1

>  <ROTATABLE_BONDS>
3

>  <LOGP>
0.76999998

>  <LOGS>
-1.58

>  <TPSA>
56.790001

>  <PRICE>
N07

$$$$
AP-065/43441423
  MOE2011           3D

 54 56  0  0  1  0  0  0  0  0999 V2000
   -0.6720   -0.2870   -0.5460 C   0  0  2  0  0  0  0  0  0  0  0  0
    0.7490    0.4610   -0.3540 C   0  0  2  0  0  0  0  0  0  0  0  0
   -1.6620    0.1880    0.6020 C   0  0  2  0  0  0  0  0  0  0  0  0
   -2.9960   -0.6420    0.7310 C   0  0  1  0  0  0  0  0  0  0  0  0
   -1.8250    1.7300    0.6370 C   0  0  1  0  0  0  0  0  0  0  0  0
   -4.1470   -0.3830   -0.2890 C   0  0  0  0  0  0  0  0  0  0  0  0
    0.5460    2.0220   -0.3000 C   0  0  1  0  0  0  0  0  0  0  0  0
   -0.4740    2.4200    0.7890 C   0  0  0  0  0  0  0  0  0  0  0  0
   -0.6280    3.5070    0.7470 H   0  0  0  0  0  0  0  0  0  0  0  0
   -0.0640    2.1970    1.7820 H   0  0  0  0  0  0  0  0  0  0  0  0
    1.8060    0.0690   -1.4480 C   0  0  0  0  0  0  0  0  0  0  0  0
    1.2970   -0.1130   -2.3980 H   0  0  0  0  0  0  0  0  0  0  0  0
    2.4540    0.9180   -1.6750 H   0  0  0  0  0  0  0  0  0  0  0  0
    3.9370   -0.8130   -0.3520 C   0  0  0  0  0  0  0  0  0  0  0  0
    5.9610   -0.0250    0.2590 O   0  0  0  0  0  0  0  0  0  0  0  0
    5.0510   -0.0990   -0.7460 C   0  0  0  0  0  0  0  0  0  0  0  0
    5.3350    0.3940   -1.6650 H   0  0  0  0  0  0  0  0  0  0  0  0
   -4.2170    0.8160   -0.7060 O   0  0  0  0  0  0  0  0  0  0  0  0
    4.2030   -1.2110    0.9890 C   0  0  0  0  0  0  0  0  0  0  0  0
    3.5600   -1.7930    1.6360 H   0  0  0  0  0  0  0  0  0  0  0  0
    5.4380   -0.7030    1.3120 C   0  0  0  0  0  0  0  0  0  0  0  0
    6.0530   -0.7350    2.2000 H   0  0  0  0  0  0  0  0  0  0  0  0
    1.2570    0.0670    0.9330 O   0  0  0  0  0  0  0  0  0  0  0  0
    2.1200    0.4920    1.0630 H   0  0  0  0  0  0  0  0  0  0  0  0
    2.7220   -1.1360   -1.1640 C   0  0  0  0  0  0  0  0  0  0  0  0
    3.0710   -1.5300   -2.1280 H   0  0  0  0  0  0  0  0  0  0  0  0
    2.1770   -1.9550   -0.6900 H   0  0  0  0  0  0  0  0  0  0  0  0
   -0.4890   -1.8290   -0.4150 C   0  0  0  0  0  0  0  0  0  0  0  0
    0.0800   -2.2160   -1.2670 H   0  0  0  0  0  0  0  0  0  0  0  0
    0.0920   -2.0640    0.4850 H   0  0  0  0  0  0  0  0  0  0  0  0
   -1.2500   -0.0190   -1.9620 C   0  0  0  0  0  0  0  0  0  0  0  0
   -2.2800   -0.3610   -2.0630 H   0  0  0  0  0  0  0  0  0  0  0  0
   -0.6930   -0.5600   -2.7340 H   0  0  0  0  0  0  0  0  0  0  0  0
   -1.2280    1.0360   -2.2410 H   0  0  0  0  0  0  0  0  0  0  0  0
   -2.4460    2.2730   -0.5210 O   0  0  0  0  0  0  0  0  0  0  0  0
   -3.2920    1.7320   -0.6650 H   0  0  0  0  0  0  0  0  0  0  0  0
   -4.8890   -1.3590   -0.5820 O   0  5  0  0  0  0  0  0  0  0  0  0
   -2.6470   -2.1430    0.8250 C   0  0  0  0  0  0  0  0  0  0  0  0
   -2.0990   -2.3330    1.7590 H   0  0  0  0  0  0  0  0  0  0  0  0
   -3.5470   -2.7680    0.8820 H   0  0  0  0  0  0  0  0  0  0  0  0
   -3.7370   -0.2700    2.0420 C   0  0  0  0  0  0  0  0  0  0  0  0
   -3.0640   -0.3350    2.9050 H   0  0  0  0  0  0  0  0  0  0  0  0
   -4.5760   -0.9500    2.2360 H   0  0  0  0  0  0  0  0  0  0  0  0
   -4.1520    0.7440    2.0210 H   0  0  0  0  0  0  0  0  0  0  0  0
   -1.7940   -2.6140   -0.3410 C   0  0  0  0  0  0  0  0  0  0  0  0
   -1.5630   -3.6780   -0.2090 H   0  0  0  0  0  0  0  0  0  0  0  0
   -2.3490   -2.5340   -1.2820 H   0  0  0  0  0  0  0  0  0  0  0  0
    1.8240    2.8390   -0.0180 C   0  0  0  0  0  0  0  0  0  0  0  0
    1.5870    3.9090    0.0280 H   0  0  0  0  0  0  0  0  0  0  0  0
    2.5760    2.7290   -0.8020 H   0  0  0  0  0  0  0  0  0  0  0  0
    2.2830    2.5700    0.9380 H   0  0  0  0  0  0  0  0  0  0  0  0
   -1.1340   -0.0430    1.5410 H   0  0  0  0  0  0  0  0  0  0  0  0
   -2.4370    2.0270    1.4930 H   0  0  0  0  0  0  0  0  0  0  0  0
    0.1710    2.3630   -1.2720 H   0  0  0  0  0  0  0  0  0  0  0  0
  1  2  1  0  0  0  0
  1  3  1  0  0  0  0
  1 28  1  0  0  0  0
  1 31  1  0  0  0  0
  2  7  1  0  0  0  0
  2 11  1  0  0  0  0
  2 23  1  0  0  0  0
  3  4  1  0  0  0  0
  3  5  1  0  0  0  0
  3 52  1  0  0  0  0
  4  6  1  0  0  0  0
  4 38  1  0  0  0  0
  4 41  1  0  0  0  0
  5  8  1  0  0  0  0
  5 35  1  0  0  0  0
  5 53  1  0  0  0  0
  6 18  2  0  0  0  0
  6 37  1  0  0  0  0
  7  8  1  0  0  0  0
  7 48  1  0  0  0  0
  7 54  1  0  0  0  0
  8  9  1  0  0  0  0
  8 10  1  0  0  0  0
 11 12  1  0  0  0  0
 11 13  1  0  0  0  0
 11 25  1  0  0  0  0
 14 16  2  0  0  0  0
 14 19  1  0  0  0  0
 14 25  1  0  0  0  0
 15 16  1  0  0  0  0
 15 21  1  0  0  0  0
 16 17  1  0  0  0  0
 19 20  1  0  0  0  0
 19 21  2  0  0  0  0
 21 22  1  0  0  0  0
 23 24  1  0  0  0  0
 25 26  1  0  0  0  0
 25 27  1  0  0  0  0
 28 29  1  0  0  0  0
 28 30  1  0  0  0  0
 28 45  1  0  0  0  0
 31 32  1  0  0  0  0
 31 33  1  0  0  0  0
 31 34  1  0  0  0  0
 35 36  1  0  0  0  0
 38 39  1  0  0  0  0
 38 40  1  0  0  0  0
 38 45  1  0  0  0  0
 41 42  1  0  0  0  0
 41 43  1  0  0  0  0
 41 44  1  0  0  0  0
 45 46  1  0  0  0  0
 45 47  1  0  0  0  0
 48 49  1  0  0  0  0
 48 50  1  0  0  0  0
 48 51  1  0  0  0  0
M  CHG  1  37  -1
M  END
>  <IDNUMBER>
AP-065/43441423

>  <NAME>
Marrubic Acid

>  <ADD_INFO>
http://www.specs.net/enter.php?specsid=AP-065/43441423

>  <H_ACCEPTORS>
4

>  <H_DONORS>
3

>  <ROTATABLE_BONDS>
4

>  <LOGP>
4.0500002

>  <LOGS>
-4.8200002

>  <TPSA>
90.900002

>  <PRICE>
N07

$$$$
AP-122/41076184
  MOE2011           3D

 43 45  0  0  0  0  0  0  0  0999 V2000
    3.4370    1.0990   -1.7920 N   0  0  0  0  0  0  0  0  0  0  0  0
    3.7460    1.5710   -2.6300 H   0  0  0  0  0  0  0  0  0  0  0  0
    2.1140    0.0820   -0.3080 C   0  0  0  0  0  0  0  0  0  0  0  0
    2.1560    0.6800   -1.5530 C   0  0  0  0  0  0  0  0  0  0  0  0
    1.3870    0.8490   -2.2950 H   0  0  0  0  0  0  0  0  0  0  0  0
   -1.9920   -2.2660    0.2420 C   0  0  0  0  0  0  0  0  0  0  0  0
   -1.5200   -0.9650    0.4010 N   0  0  0  0  0  0  0  0  0  0  0  0
    3.4480    0.1470    0.2200 C   0  0  0  0  0  0  0  0  0  0  0  0
    4.2480    0.7870   -0.7270 C   0  0  0  0  0  0  0  0  0  0  0  0
   -1.2530   -3.1540   -0.7000 C   0  0  0  0  0  0  0  0  0  0  0  0
   -0.2410   -2.9140   -0.9930 H   0  0  0  0  0  0  0  0  0  0  0  0
   -2.1980   -0.1050    1.3780 C   0  0  0  0  0  0  0  0  0  0  0  0
   -2.7610   -0.7070    2.1010 H   0  0  0  0  0  0  0  0  0  0  0  0
   -1.4310    0.4210    1.9590 H   0  0  0  0  0  0  0  0  0  0  0  0
    0.9350   -0.5280    0.3910 C   0  0  0  0  0  0  0  0  0  0  0  0
    0.8550   -0.0790    1.3890 H   0  0  0  0  0  0  0  0  0  0  0  0
    1.1380   -1.5940    0.5510 H   0  0  0  0  0  0  0  0  0  0  0  0
   -0.4000   -0.3630   -0.3410 C   0  0  0  0  0  0  0  0  0  0  0  0
   -0.3500   -0.8070   -1.3410 H   0  0  0  0  0  0  0  0  0  0  0  0
   -0.6180    0.6990   -0.4980 H   0  0  0  0  0  0  0  0  0  0  0  0
   -2.9770   -2.7000    0.8400 O   0  0  0  0  0  0  0  0  0  0  0  0
   -1.8250   -4.2760   -1.1560 C   0  0  0  0  0  0  0  0  0  0  0  0
   -1.2880   -4.9360   -1.8280 H   0  0  0  0  0  0  0  0  0  0  0  0
   -2.8330   -4.5630   -0.8700 H   0  0  0  0  0  0  0  0  0  0  0  0
   -3.1450    0.8750    0.7270 C   0  0  0  0  0  0  0  0  0  0  0  0
    4.0460   -0.2830    1.4240 C   0  0  0  0  0  0  0  0  0  0  0  0
    3.4550   -0.7840    2.1850 H   0  0  0  0  0  0  0  0  0  0  0  0
    5.6150    1.0200   -0.5330 C   0  0  0  0  0  0  0  0  0  0  0  0
    6.2200    1.5200   -1.2840 H   0  0  0  0  0  0  0  0  0  0  0  0
   -2.8550    2.2470    0.7110 C   0  0  0  0  0  0  0  0  0  0  0  0
   -1.9470    2.6250    1.1740 H   0  0  0  0  0  0  0  0  0  0  0  0
   -4.3260    0.4250    0.1180 C   0  0  0  0  0  0  0  0  0  0  0  0
   -4.5740   -0.6340    0.1210 H   0  0  0  0  0  0  0  0  0  0  0  0
    5.4120   -0.0580    1.6340 C   0  0  0  0  0  0  0  0  0  0  0  0
    5.8730   -0.3900    2.5610 H   0  0  0  0  0  0  0  0  0  0  0  0
    6.1820    0.5840    0.6680 C   0  0  0  0  0  0  0  0  0  0  0  0
    7.2410    0.7490    0.8490 H   0  0  0  0  0  0  0  0  0  0  0  0
   -5.1940    1.3270   -0.4990 C   0  0  0  0  0  0  0  0  0  0  0  0
   -6.1050    0.9670   -0.9690 H   0  0  0  0  0  0  0  0  0  0  0  0
   -3.7250    3.1480    0.0930 C   0  0  0  0  0  0  0  0  0  0  0  0
   -3.4890    4.2090    0.0830 H   0  0  0  0  0  0  0  0  0  0  0  0
   -4.8920    2.6880   -0.5120 C   0  0  0  0  0  0  0  0  0  0  0  0
   -5.5680    3.3890   -0.9930 H   0  0  0  0  0  0  0  0  0  0  0  0
  1  2  1  0  0  0  0
  1  4  1  0  0  0  0
  1  9  1  0  0  0  0
  3  4  2  0  0  0  0
  3  8  1  0  0  0  0
  3 15  1  0  0  0  0
  4  5  1  0  0  0  0
  6  7  1  0  0  0  0
  6 10  1  0  0  0  0
  6 21  2  0  0  0  0
  7 12  1  0  0  0  0
  7 18  1  0  0  0  0
  8  9  2  0  0  0  0
  8 26  1  0  0  0  0
  9 28  1  0  0  0  0
 10 11  1  0  0  0  0
 10 22  2  0  0  0  0
 12 13  1  0  0  0  0
 12 14  1  0  0  0  0
 12 25  1  0  0  0  0
 15 16  1  0  0  0  0
 15 17  1  0  0  0  0
 15 18  1  0  0  0  0
 18 19  1  0  0  0  0
 18 20  1  0  0  0  0
 22 23  1  0  0  0  0
 22 24  1  0  0  0  0
 25 30  2  0  0  0  0
 25 32  1  0  0  0  0
 26 27  1  0  0  0  0
 26 34  2  0  0  0  0
 28 29  1  0  0  0  0
 28 36  2  0  0  0  0
 30 31  1  0  0  0  0
 30 40  1  0  0  0  0
 32 33  1  0  0  0  0
 32 38  2  0  0  0  0
 34 35  1  0  0  0  0
 34 36  1  0  0  0  0
 36 37  1  0  0  0  0
 38 39  1  0  0  0  0
 38 42  1  0  0  0  0
 40 41  1  0  0  0  0
 40 42  2  0  0  0  0
 42 43  1  0  0  0  0
M  END
>  <IDNUMBER>
AP-122/41076184

>  <NAME>
Tryptamine, derivative of

>  <ADD_INFO>
http://www.specs.net/enter.php?specsid=AP-122/41076184

>  <H_ACCEPTORS>
3

>  <H_DONORS>
1

>  <ROTATABLE_BONDS>
7

>  <LOGP>
3.8399999

>  <LOGS>
-4.6999998

>  <TPSA>
36.099998

>  <PRICE>
N08

$$$$
AP-122/41076189
  MOE2011           3D

 26 27  0  0  0  0  0  0  0  0999 V2000
    0.0260   -0.8420    0.7890 C   0  0  0  0  0  0  0  0  0  0  0  0
   -1.6330   -2.0140   -0.1310 N   0  0  0  0  0  0  0  0  0  0  0  0
   -2.1690   -2.7890   -0.4960 H   0  0  0  0  0  0  0  0  0  0  0  0
   -0.3740   -2.1050    0.3980 C   0  0  0  0  0  0  0  0  0  0  0  0
    0.1260   -3.0630    0.4570 H   0  0  0  0  0  0  0  0  0  0  0  0
   -1.0520    0.0490    0.4780 C   0  0  0  0  0  0  0  0  0  0  0  0
    1.3280   -0.4840    1.4270 C   0  0  0  0  0  0  0  0  0  0  0  0
    1.9060   -1.3860    1.6660 H   0  0  0  0  0  0  0  0  0  0  0  0
    1.1490    0.0390    2.3740 H   0  0  0  0  0  0  0  0  0  0  0  0
    2.1690    0.4090    0.5350 C   0  0  0  0  0  0  0  0  0  0  0  0
   -2.0720   -0.7120   -0.0960 C   0  0  0  0  0  0  0  0  0  0  0  0
    2.3300    1.6040    0.7730 O   0  0  0  0  0  0  0  0  0  0  0  0
    2.7360   -0.2480   -0.5410 N   0  0  0  0  0  0  0  0  0  0  0  0
    2.5290   -1.2290   -0.6880 H   0  0  0  0  0  0  0  0  0  0  0  0
   -1.2540    1.4370    0.6300 C   0  0  0  0  0  0  0  0  0  0  0  0
   -0.4810    2.0630    1.0680 H   0  0  0  0  0  0  0  0  0  0  0  0
   -3.2840   -0.1560   -0.5220 C   0  0  0  0  0  0  0  0  0  0  0  0
   -4.0650   -0.7660   -0.9650 H   0  0  0  0  0  0  0  0  0  0  0  0
    3.5950    0.4270   -1.4810 C   0  0  0  0  0  0  0  0  0  0  0  0
    4.1620    1.2200   -0.9870 H   0  0  0  0  0  0  0  0  0  0  0  0
    2.9720    0.8590   -2.2690 H   0  0  0  0  0  0  0  0  0  0  0  0
    4.2800   -0.3060   -1.9140 H   0  0  0  0  0  0  0  0  0  0  0  0
   -2.4600    2.0090    0.2090 C   0  0  0  0  0  0  0  0  0  0  0  0
   -2.6150    3.0790    0.3250 H   0  0  0  0  0  0  0  0  0  0  0  0
   -3.4590    1.2220   -0.3590 C   0  0  0  0  0  0  0  0  0  0  0  0
   -4.3900    1.6840   -0.6800 H   0  0  0  0  0  0  0  0  0  0  0  0
  1  4  2  0  0  0  0
  1  6  1  0  0  0  0
  1  7  1  0  0  0  0
  2  3  1  0  0  0  0
  2  4  1  0  0  0  0
  2 11  1  0  0  0  0
  4  5  1  0  0  0  0
  6 11  2  0  0  0  0
  6 15  1  0  0  0  0
  7  8  1  0  0  0  0
  7  9  1  0  0  0  0
  7 10  1  0  0  0  0
 10 12  2  0  0  0  0
 10 13  1  0  0  0  0
 11 17  1  0  0  0  0
 13 14  1  0  0  0  0
 13 19  1  0  0  0  0
 15 16  1  0  0  0  0
 15 23  2  0  0  0  0
 17 18  1  0  0  0  0
 17 25  2  0  0  0  0
 19 20  1  0  0  0  0
 19 21  1  0  0  0  0
 19 22  1  0  0  0  0
 23 24  1  0  0  0  0
 23 25  1  0  0  0  0
 25 26  1  0  0  0  0
M  END
>  <IDNUMBER>
AP-122/41076189

>  <NAME>
Indole, derivative of

>  <ADD_INFO>
http://www.specs.net/enter.php?specsid=AP-122/41076189

>  <H_ACCEPTORS>
3

>  <H_DONORS>
2

>  <ROTATABLE_BONDS>
3

>  <LOGP>
1.0700001

>  <LOGS>
-1.49

>  <TPSA>
44.889999

>  <PRICE>
N08

$$$$
AP-122/41076190
  MOE2011           3D

 40 43  0  0  0  0  0  0  0  0999 V2000
    0.9270   -0.2180    0.0320 C   0  0  0  0  0  0  0  0  0  0  0  0
    1.6080   -1.4090   -0.2390 N   0  0  0  0  0  0  0  0  0  0  0  0
    3.0060   -1.4930   -0.3140 C   0  0  0  0  0  0  0  0  0  0  0  0
   -0.5660   -0.2490    0.0780 C   0  0  0  0  0  0  0  0  0  0  0  0
    1.6100    0.9120    0.2880 C   0  0  0  0  0  0  0  0  0  0  0  0
    1.1230    1.8450    0.5450 H   0  0  0  0  0  0  0  0  0  0  0  0
    3.7670   -0.2490   -0.0450 C   0  0  0  0  0  0  0  0  0  0  0  0
    3.0710    0.9240    0.2530 C   0  0  0  0  0  0  0  0  0  0  0  0
   -1.2150   -1.4810    0.2900 C   0  0  0  0  0  0  0  0  0  0  0  0
   -1.3650    0.8890   -0.1180 C   0  0  0  0  0  0  0  0  0  0  0  0
   -0.9220    1.8550   -0.3410 H   0  0  0  0  0  0  0  0  0  0  0  0
    0.8350   -2.6300   -0.4780 C   0  0  0  0  0  0  0  0  0  0  0  0
    0.5340   -2.6150   -1.5340 H   0  0  0  0  0  0  0  0  0  0  0  0
    1.4630   -3.5160   -0.3360 H   0  0  0  0  0  0  0  0  0  0  0  0
   -2.7640    0.8060   -0.0650 C   0  0  0  0  0  0  0  0  0  0  0  0
   -2.6140   -1.5480    0.3890 C   0  0  0  0  0  0  0  0  0  0  0  0
   -3.1020   -2.5000    0.5830 H   0  0  0  0  0  0  0  0  0  0  0  0
   -3.3950   -0.4010    0.2400 C   0  0  0  0  0  0  0  0  0  0  0  0
    3.6230   -2.5210   -0.5850 O   0  0  0  0  0  0  0  0  0  0  0  0
   -0.3840   -2.7290    0.4340 C   0  0  0  0  0  0  0  0  0  0  0  0
   -0.9650   -3.6170    0.1620 H   0  0  0  0  0  0  0  0  0  0  0  0
   -0.0760   -2.8290    1.4810 H   0  0  0  0  0  0  0  0  0  0  0  0
   -3.4750    1.9540   -0.3080 O   0  0  0  0  0  0  0  0  0  0  0  0
   -4.7460   -0.5990    0.3440 O   0  0  0  0  0  0  0  0  0  0  0  0
    5.1670   -0.2560   -0.0860 C   0  0  0  0  0  0  0  0  0  0  0  0
    5.7090   -1.1700   -0.3190 H   0  0  0  0  0  0  0  0  0  0  0  0
    3.7890    2.0970    0.5140 C   0  0  0  0  0  0  0  0  0  0  0  0
    3.2720    3.0250    0.7500 H   0  0  0  0  0  0  0  0  0  0  0  0
   -3.7500    2.0610   -1.7060 C   0  0  0  0  0  0  0  0  0  0  0  0
   -4.3430    2.9660   -1.8610 H   0  0  0  0  0  0  0  0  0  0  0  0
   -4.3350    1.2070   -2.0640 H   0  0  0  0  0  0  0  0  0  0  0  0
   -2.8250    2.1590   -2.2850 H   0  0  0  0  0  0  0  0  0  0  0  0
   -5.4460    0.4140    1.0620 C   0  0  0  0  0  0  0  0  0  0  0  0
   -6.3420   -0.0450    1.4920 H   0  0  0  0  0  0  0  0  0  0  0  0
   -5.7770    1.2050    0.3830 H   0  0  0  0  0  0  0  0  0  0  0  0
   -4.8560    0.8260    1.8890 H   0  0  0  0  0  0  0  0  0  0  0  0
    5.8740    0.9170    0.1750 C   0  0  0  0  0  0  0  0  0  0  0  0
    6.9610    0.9150    0.1450 H   0  0  0  0  0  0  0  0  0  0  0  0
    5.1850    2.0920    0.4750 C   0  0  0  0  0  0  0  0  0  0  0  0
    5.7360    3.0070    0.6790 H   0  0  0  0  0  0  0  0  0  0  0  0
  1  2  1  0  0  0  0
  1  4  1  0  0  0  0
  1  5  2  0  0  0  0
  2  3  1  0  0  0  0
  2 12  1  0  0  0  0
  3  7  1  0  0  0  0
  3 19  2  0  0  0  0
  4  9  2  0  0  0  0
  4 10  1  0  0  0  0
  5  6  1  0  0  0  0
  5  8  1  0  0  0  0
  7  8  2  0  0  0  0
  7 25  1  0  0  0  0
  8 27  1  0  0  0  0
  9 16  1  0  0  0  0
  9 20  1  0  0  0  0
 10 11  1  0  0  0  0
 10 15  2  0  0  0  0
 12 13  1  0  0  0  0
 12 14  1  0  0  0  0
 12 20  1  0  0  0  0
 15 18  1  0  0  0  0
 15 23  1  0  0  0  0
 16 17  1  0  0  0  0
 16 18  2  0  0  0  0
 18 24  1  0  0  0  0
 20 21  1  0  0  0  0
 20 22  1  0  0  0  0
 23 29  1  0  0  0  0
 24 33  1  0  0  0  0
 25 26  1  0  0  0  0
 25 37  2  0  0  0  0
 27 28  1  0  0  0  0
 27 39  2  0  0  0  0
 29 30  1  0  0  0  0
 29 31  1  0  0  0  0
 29 32  1  0  0  0  0
 33 34  1  0  0  0  0
 33 35  1  0  0  0  0
 33 36  1  0  0  0  0
 37 38  1  0  0  0  0
 37 39  1  0  0  0  0
 39 40  1  0  0  0  0
M  END
>  <IDNUMBER>
AP-122/41076190

>  <NAME>
8-Oxopseudopalmatine, derivative of

>  <ADD_INFO>
http://www.specs.net/enter.php?specsid=AP-122/41076190

>  <H_ACCEPTORS>
2

>  <H_DONORS>
0

>  <ROTATABLE_BONDS>
2

>  <LOGP>
2.79

>  <LOGS>
-3.8299999

>  <TPSA>
38.77

>  <PRICE>
N08

$$$$
AP-122/41076191
  MOE2011           3D

 43 46  0  0  1  0  0  0  0  0999 V2000
   -1.0080    2.0630   -0.6070 N   0  0  0  0  0  0  0  0  0  0  0  0
   -2.2450    1.9130   -0.0010 C   0  0  0  0  0  0  0  0  0  0  0  0
   -0.3520    1.0380   -1.4200 C   0  0  3  0  0  0  0  0  0  0  0  0
    0.8220    0.4870   -0.6120 C   0  0  0  0  0  0  0  0  0  0  0  0
   -2.8770    0.5720   -0.1060 C   0  0  0  0  0  0  0  0  0  0  0  0
   -1.3680    0.0670   -2.0390 C   0  0  0  0  0  0  0  0  0  0  0  0
   -1.8980    0.5880   -2.8500 H   0  0  0  0  0  0  0  0  0  0  0  0
   -0.8860   -0.7980   -2.5030 H   0  0  0  0  0  0  0  0  0  0  0  0
   -2.4190   -0.3520   -1.0540 C   0  0  0  0  0  0  0  0  0  0  0  0
    1.4670    1.3380    0.3220 C   0  0  0  0  0  0  0  0  0  0  0  0
    1.3380   -0.8020   -0.8160 C   0  0  0  0  0  0  0  0  0  0  0  0
    0.8710   -1.4520   -1.5460 H   0  0  0  0  0  0  0  0  0  0  0  0
   -0.1690    3.2090   -0.3100 C   0  0  0  0  0  0  0  0  0  0  0  0
    0.2470    3.5880   -1.2510 H   0  0  0  0  0  0  0  0  0  0  0  0
   -0.7390    4.0190    0.1540 H   0  0  0  0  0  0  0  0  0  0  0  0
   -6.3970   -1.6850    2.3420 N   0  0  0  0  0  0  0  0  0  0  0  0
    2.4430   -1.2650   -0.0880 C   0  0  0  0  0  0  0  0  0  0  0  0
    2.5710    0.8690    1.0520 C   0  0  0  0  0  0  0  0  0  0  0  0
    3.0290    1.5400    1.7740 H   0  0  0  0  0  0  0  0  0  0  0  0
    3.0580   -0.4270    0.8610 C   0  0  0  0  0  0  0  0  0  0  0  0
   -5.5450   -1.3950    1.6100 C   0  0  0  0  0  0  0  0  0  0  0  0
   -2.7930    2.7850    0.6680 O   0  0  0  0  0  0  0  0  0  0  0  0
   -3.9130    0.2310    0.7720 C   0  0  0  0  0  0  0  0  0  0  0  0
   -4.2580    0.9550    1.5090 H   0  0  0  0  0  0  0  0  0  0  0  0
    0.9450    2.7370    0.6300 C   0  0  0  0  0  0  0  0  0  0  0  0
    1.7690    3.4600    0.6070 H   0  0  0  0  0  0  0  0  0  0  0  0
    0.5490    2.7140    1.6540 H   0  0  0  0  0  0  0  0  0  0  0  0
   -3.0130   -1.6170   -1.1250 C   0  0  0  0  0  0  0  0  0  0  0  0
   -2.6870   -2.3400   -1.8700 H   0  0  0  0  0  0  0  0  0  0  0  0
   -4.4920   -1.0390    0.7060 C   0  0  0  0  0  0  0  0  0  0  0  0
   -4.0400   -1.9620   -0.2420 C   0  0  0  0  0  0  0  0  0  0  0  0
   -4.4850   -2.9530   -0.3080 H   0  0  0  0  0  0  0  0  0  0  0  0
    2.9860   -2.5200   -0.2210 O   0  0  0  0  0  0  0  0  0  0  0  0
    4.1240   -0.9630    1.5400 O   0  0  0  0  0  0  0  0  0  0  0  0
    2.5290   -3.3300   -1.2950 C   0  0  0  0  0  0  0  0  0  0  0  0
    3.1330   -4.2430   -1.3060 H   0  0  0  0  0  0  0  0  0  0  0  0
    2.6670   -2.8290   -2.2590 H   0  0  0  0  0  0  0  0  0  0  0  0
    1.4860   -3.6250   -1.1470 H   0  0  0  0  0  0  0  0  0  0  0  0
    4.7250   -0.1720    2.5560 C   0  0  0  0  0  0  0  0  0  0  0  0
    5.5240   -0.7650    3.0120 H   0  0  0  0  0  0  0  0  0  0  0  0
    4.0050    0.0760    3.3430 H   0  0  0  0  0  0  0  0  0  0  0  0
    5.1800    0.7300    2.1340 H   0  0  0  0  0  0  0  0  0  0  0  0
    0.1130    1.5560   -2.2720 H   0  0  0  0  0  0  0  0  0  0  0  0
  1  2  1  0  0  0  0
  1  3  1  0  0  0  0
  1 13  1  0  0  0  0
  2  5  1  0  0  0  0
  2 22  2  0  0  0  0
  3  4  1  0  0  0  0
  3  6  1  0  0  0  0
  3 43  1  0  0  0  0
  4 10  2  0  0  0  0
  4 11  1  0  0  0  0
  5  9  2  0  0  0  0
  5 23  1  0  0  0  0
  6  7  1  0  0  0  0
  6  8  1  0  0  0  0
  6  9  1  0  0  0  0
  9 28  1  0  0  0  0
 10 18  1  0  0  0  0
 10 25  1  0  0  0  0
 11 12  1  0  0  0  0
 11 17  2  0  0  0  0
 13 14  1  0  0  0  0
 13 15  1  0  0  0  0
 13 25  1  0  0  0  0
 16 21  3  0  0  0  0
 17 20  1  0  0  0  0
 17 33  1  0  0  0  0
 18 19  1  0  0  0  0
 18 20  2  0  0  0  0
 20 34  1  0  0  0  0
 21 30  1  0  0  0  0
 23 24  1  0  0  0  0
 23 30  2  0  0  0  0
 25 26  1  0  0  0  0
 25 27  1  0  0  0  0
 28 29  1  0  0  0  0
 28 31  2  0  0  0  0
 30 31  1  0  0  0  0
 31 32  1  0  0  0  0
 33 35  1  0  0  0  0
 34 39  1  0  0  0  0
 35 36  1  0  0  0  0
 35 37  1  0  0  0  0
 35 38  1  0  0  0  0
 39 40  1  0  0  0  0
 39 41  1  0  0  0  0
 39 42  1  0  0  0  0
M  END
>  <IDNUMBER>
AP-122/41076191

>  <NAME>
8-Oxotetrahydropalmatine, derivative of

>  <ADD_INFO>
http://www.specs.net/enter.php?specsid=AP-122/41076191

>  <H_ACCEPTORS>
3

>  <H_DONORS>
0

>  <ROTATABLE_BONDS>
2

>  <LOGP>
2.4200001

>  <LOGS>
-3.97

>  <TPSA>
62.560001

>  <PRICE>
N08

$$$$
AP-122/41076192
  MOE2011           3D

 36 39  0  0  0  0  0  0  0  0999 V2000
    0.9640    0.3780   -0.1400 C   0  0  0  0  0  0  0  0  0  0  0  0
   -1.1700   -0.6820   -0.3370 N   0  0  0  0  0  0  0  0  0  0  0  0
   -0.4460    0.5100   -0.2040 C   0  0  0  0  0  0  0  0  0  0  0  0
    1.6600   -0.7960    0.0480 C   0  0  0  0  0  0  0  0  0  0  0  0
    1.8730    1.3900   -0.2750 N   0  0  0  0  0  0  0  0  0  0  0  0
    1.6620    2.3630   -0.4400 H   0  0  0  0  0  0  0  0  0  0  0  0
   -2.5680   -0.7020   -0.3620 C   0  0  0  0  0  0  0  0  0  0  0  0
   -1.0790    1.6860   -0.0930 C   0  0  0  0  0  0  0  0  0  0  0  0
   -0.5610    2.6290    0.0430 H   0  0  0  0  0  0  0  0  0  0  0  0
    3.0460   -0.4940    0.0480 C   0  0  0  0  0  0  0  0  0  0  0  0
    3.1540    0.8850   -0.1570 C   0  0  0  0  0  0  0  0  0  0  0  0
   -3.2600    0.6250   -0.2210 C   0  0  0  0  0  0  0  0  0  0  0  0
   -0.4470   -1.9660   -0.5120 C   0  0  0  0  0  0  0  0  0  0  0  0
   -1.0850   -2.8000   -0.1990 H   0  0  0  0  0  0  0  0  0  0  0  0
   -0.2920   -2.0760   -1.5940 H   0  0  0  0  0  0  0  0  0  0  0  0
   -2.5170    1.7380   -0.1160 C   0  0  0  0  0  0  0  0  0  0  0  0
   -2.9810    2.7160   -0.0270 H   0  0  0  0  0  0  0  0  0  0  0  0
    0.9110   -2.0670    0.2170 C   0  0  0  0  0  0  0  0  0  0  0  0
    0.7390   -2.2350    1.2870 H   0  0  0  0  0  0  0  0  0  0  0  0
    1.4780   -2.9210   -0.1690 H   0  0  0  0  0  0  0  0  0  0  0  0
   -3.2350   -1.7260   -0.5040 O   0  0  0  0  0  0  0  0  0  0  0  0
    4.2250   -1.2500    0.2010 C   0  0  0  0  0  0  0  0  0  0  0  0
    4.1770   -2.3230    0.3620 H   0  0  0  0  0  0  0  0  0  0  0  0
   -4.7640    0.6410   -0.2510 C   0  0  0  0  0  0  0  0  0  0  0  0
   -5.1260    1.6520   -0.4760 H   0  0  0  0  0  0  0  0  0  0  0  0
   -5.1300    0.0040   -1.0650 H   0  0  0  0  0  0  0  0  0  0  0  0
    4.3880    1.5430   -0.2180 C   0  0  0  0  0  0  0  0  0  0  0  0
    4.4520    2.6140   -0.3800 H   0  0  0  0  0  0  0  0  0  0  0  0
   -5.3720    0.1920    1.0700 C   0  0  0  0  0  0  0  0  0  0  0  0
   -5.0460    0.8350    1.8940 H   0  0  0  0  0  0  0  0  0  0  0  0
   -5.0940   -0.8390    1.3130 H   0  0  0  0  0  0  0  0  0  0  0  0
   -6.4640    0.2390    1.0170 H   0  0  0  0  0  0  0  0  0  0  0  0
    5.4670   -0.6050    0.1440 C   0  0  0  0  0  0  0  0  0  0  0  0
    6.3790   -1.1840    0.2630 H   0  0  0  0  0  0  0  0  0  0  0  0
    5.5440    0.7710   -0.0630 C   0  0  0  0  0  0  0  0  0  0  0  0
    6.5190    1.2540   -0.1040 H   0  0  0  0  0  0  0  0  0  0  0  0
  1  3  1  0  0  0  0
  1  4  2  0  0  0  0
  1  5  1  0  0  0  0
  2  3  1  0  0  0  0
  2  7  1  0  0  0  0
  2 13  1  0  0  0  0
  3  8  2  0  0  0  0
  4 10  1  0  0  0  0
  4 18  1  0  0  0  0
  5  6  1  0  0  0  0
  5 11  1  0  0  0  0
  7 12  1  0  0  0  0
  7 21  2  0  0  0  0
  8  9  1  0  0  0  0
  8 16  1  0  0  0  0
 10 11  2  0  0  0  0
 10 22  1  0  0  0  0
 11 27  1  0  0  0  0
 12 16  2  0  0  0  0
 12 24  1  0  0  0  0
 13 14  1  0  0  0  0
 13 15  1  0  0  0  0
 13 18  1  0  0  0  0
 16 17  1  0  0  0  0
 18 19  1  0  0  0  0
 18 20  1  0  0  0  0
 22 23  1  0  0  0  0
 22 33  2  0  0  0  0
 24 25  1  0  0  0  0
 24 26  1  0  0  0  0
 24 29  1  0  0  0  0
 27 28  1  0  0  0  0
 27 35  2  0  0  0  0
 29 30  1  0  0  0  0
 29 31  1  0  0  0  0
 29 32  1  0  0  0  0
 33 34  1  0  0  0  0
 33 35  1  0  0  0  0
 35 36  1  0  0  0  0
M  END
>  <IDNUMBER>
AP-122/41076192

>  <NAME>
Corynantheidinaline, derivative of

>  <ADD_INFO>
http://www.specs.net/enter.php?specsid=AP-122/41076192

>  <H_ACCEPTORS>
3

>  <H_DONORS>
1

>  <ROTATABLE_BONDS>
1

>  <LOGP>
3.25

>  <LOGS>
-3.9100001

>  <TPSA>
36.099998

>  <PRICE>
N08

$$$$
AP-122/41076195
  MOE2011           3D

 50 53  0  0  1  0  0  0  0  0999 V2000
   -0.2490   -1.9300    0.2960 N   0  0  0  0  0  0  0  0  0  0  0  0
   -1.6010   -2.2590    0.1950 C   0  0  0  0  0  0  0  0  0  0  0  0
    0.1960   -0.5310    0.4280 C   0  0  3  0  0  0  0  0  0  0  0  0
   -2.5540   -1.1260    0.0390 C   0  0  0  0  0  0  0  0  0  0  0  0
    1.6910   -0.3250    0.2230 C   0  0  0  0  0  0  0  0  0  0  0  0
   -2.0880    0.1480   -0.3060 C   0  0  0  0  0  0  0  0  0  0  0  0
   -0.6140    0.3700   -0.5190 C   0  0  0  0  0  0  0  0  0  0  0  0
   -0.3700    1.4240   -0.3450 H   0  0  0  0  0  0  0  0  0  0  0  0
   -0.3770    0.1450   -1.5670 H   0  0  0  0  0  0  0  0  0  0  0  0
    2.5110   -1.3470   -0.2790 C   0  0  0  0  0  0  0  0  0  0  0  0
   -3.9240   -1.3460    0.2050 C   0  0  0  0  0  0  0  0  0  0  0  0
   -4.2940   -2.3350    0.4670 H   0  0  0  0  0  0  0  0  0  0  0  0
    2.2800    0.9090    0.5370 C   0  0  0  0  0  0  0  0  0  0  0  0
    1.6770    1.7160    0.9490 H   0  0  0  0  0  0  0  0  0  0  0  0
    0.7540   -2.9870    0.3480 C   0  0  0  0  0  0  0  0  0  0  0  0
    1.1020   -3.0490    1.3870 H   0  0  0  0  0  0  0  0  0  0  0  0
    0.3080   -3.9550    0.0950 H   0  0  0  0  0  0  0  0  0  0  0  0
   -3.0060    1.1910   -0.5110 C   0  0  0  0  0  0  0  0  0  0  0  0
   -2.6180    2.1600   -0.8100 H   0  0  0  0  0  0  0  0  0  0  0  0
    3.6480    1.1330    0.3390 C   0  0  0  0  0  0  0  0  0  0  0  0
   -4.8310   -0.2930    0.0450 C   0  0  0  0  0  0  0  0  0  0  0  0
    3.8750   -1.1070   -0.5180 C   0  0  0  0  0  0  0  0  0  0  0  0
    4.4660   -1.9160   -0.9390 H   0  0  0  0  0  0  0  0  0  0  0  0
   -4.3820    0.9820   -0.3450 C   0  0  0  0  0  0  0  0  0  0  0  0
    4.4550    0.1330   -0.2240 C   0  0  0  0  0  0  0  0  0  0  0  0
   -2.0330   -3.4080    0.2160 O   0  0  0  0  0  0  0  0  0  0  0  0
    1.9120   -2.6920   -0.5970 C   0  0  0  0  0  0  0  0  0  0  0  0
    2.6650   -3.4810   -0.4950 H   0  0  0  0  0  0  0  0  0  0  0  0
    1.5650   -2.6830   -1.6380 H   0  0  0  0  0  0  0  0  0  0  0  0
    4.0660    2.3980    0.6730 O   0  0  0  0  0  0  0  0  0  0  0  0
   -6.1460   -0.6410    0.2270 O   0  0  0  0  0  0  0  0  0  0  0  0
   -5.3360    1.9390   -0.5670 O   0  0  0  0  0  0  0  0  0  0  0  0
    5.7660    0.4480   -0.4690 O   0  0  0  0  0  0  0  0  0  0  0  0
    6.5760   -0.5350   -1.1000 C   0  0  0  0  0  0  0  0  0  0  0  0
    7.5730   -0.1050   -1.2400 H   0  0  0  0  0  0  0  0  0  0  0  0
    6.1850   -0.7940   -2.0900 H   0  0  0  0  0  0  0  0  0  0  0  0
    6.6830   -1.4220   -0.4680 H   0  0  0  0  0  0  0  0  0  0  0  0
    5.2700    2.4380    1.4350 C   0  0  0  0  0  0  0  0  0  0  0  0
    5.2240    3.3200    2.0810 H   0  0  0  0  0  0  0  0  0  0  0  0
    6.1330    2.5620    0.7740 H   0  0  0  0  0  0  0  0  0  0  0  0
    5.3930    1.5610    2.0800 H   0  0  0  0  0  0  0  0  0  0  0  0
   -4.9060    3.2160   -1.0190 C   0  0  0  0  0  0  0  0  0  0  0  0
   -5.7960    3.8370   -1.1590 H   0  0  0  0  0  0  0  0  0  0  0  0
   -4.3960    3.1430   -1.9850 H   0  0  0  0  0  0  0  0  0  0  0  0
   -4.2740    3.7060   -0.2710 H   0  0  0  0  0  0  0  0  0  0  0  0
   -6.8750    0.2510    1.0680 C   0  0  0  0  0  0  0  0  0  0  0  0
   -7.6390   -0.3340    1.5890 H   0  0  0  0  0  0  0  0  0  0  0  0
   -7.3910    1.0040    0.4650 H   0  0  0  0  0  0  0  0  0  0  0  0
   -6.2450    0.7260    1.8300 H   0  0  0  0  0  0  0  0  0  0  0  0
   -0.0310   -0.2620    1.4710 H   0  0  0  0  0  0  0  0  0  0  0  0
  1  2  1  0  0  0  0
  1  3  1  0  0  0  0
  1 15  1  0  0  0  0
  2  4  1  0  0  0  0
  2 26  2  0  0  0  0
  3  5  1  0  0  0  0
  3  7  1  0  0  0  0
  3 50  1  0  0  0  0
  4  6  2  0  0  0  0
  4 11  1  0  0  0  0
  5 10  2  0  0  0  0
  5 13  1  0  0  0  0
  6  7  1  0  0  0  0
  6 18  1  0  0  0  0
  7  8  1  0  0  0  0
  7  9  1  0  0  0  0
 10 22  1  0  0  0  0
 10 27  1  0  0  0  0
 11 12  1  0  0  0  0
 11 21  2  0  0  0  0
 13 14  1  0  0  0  0
 13 20  2  0  0  0  0
 15 16  1  0  0  0  0
 15 17  1  0  0  0  0
 15 27  1  0  0  0  0
 18 19  1  0  0  0  0
 18 24  2  0  0  0  0
 20 25  1  0  0  0  0
 20 30  1  0  0  0  0
 21 24  1  0  0  0  0
 21 31  1  0  0  0  0
 22 23  1  0  0  0  0
 22 25  2  0  0  0  0
 24 32  1  0  0  0  0
 25 33  1  0  0  0  0
 27 28  1  0  0  0  0
 27 29  1  0  0  0  0
 30 38  1  0  0  0  0
 31 46  1  0  0  0  0
 32 42  1  0  0  0  0
 33 34  1  0  0  0  0
 34 35  1  0  0  0  0
 34 36  1  0  0  0  0
 34 37  1  0  0  0  0
 38 39  1  0  0  0  0
 38 40  1  0  0  0  0
 38 41  1  0  0  0  0
 42 43  1  0  0  0  0
 42 44  1  0  0  0  0
 42 45  1  0  0  0  0
 46 47  1  0  0  0  0
 46 48  1  0  0  0  0
 46 49  1  0  0  0  0
M  END
>  <IDNUMBER>
AP-122/41076195

>  <NAME>
8-Oxopseudopalmatine, derivative of

>  <ADD_INFO>
http://www.specs.net/enter.php?specsid=AP-122/41076195

>  <H_ACCEPTORS>
2

>  <H_DONORS>
0

>  <ROTATABLE_BONDS>
4

>  <LOGP>
2.52

>  <LOGS>
-4.0500002

>  <TPSA>
57.23

>  <PRICE>
N08

$$$$
AP-122/41076198
  MOE2011           3D

 39 44  0  0  0  0  0  0  0  0999 V2000
    0.1630   -0.3040    0.0940 C   0  0  0  0  0  0  0  0  0  0  0  0
   -1.2170    0.0260    0.0590 C   0  0  0  0  0  0  0  0  0  0  0  0
    0.4590   -1.6740    0.1370 N   0  0  0  0  0  0  0  0  0  0  0  0
    1.7740   -2.1580    0.1260 C   0  0  0  0  0  0  0  0  0  0  0  0
   -2.2550   -0.8460   -0.1870 C   0  0  0  0  0  0  0  0  0  0  0  0
   -1.7540    1.2630    0.2880 N   0  0  0  0  0  0  0  0  0  0  0  0
   -1.2430    2.1040    0.5130 H   0  0  0  0  0  0  0  0  0  0  0  0
    2.5310    0.2160    0.0230 C   0  0  0  0  0  0  0  0  0  0  0  0
    1.1280    0.6250    0.0340 C   0  0  0  0  0  0  0  0  0  0  0  0
    0.9170    1.6850   -0.0330 H   0  0  0  0  0  0  0  0  0  0  0  0
    2.8640   -1.1500    0.0610 C   0  0  0  0  0  0  0  0  0  0  0  0
   -3.4710   -0.1180   -0.1300 C   0  0  0  0  0  0  0  0  0  0  0  0
    3.5840    1.1580   -0.0340 C   0  0  0  0  0  0  0  0  0  0  0  0
   -3.1300    1.2050    0.1690 C   0  0  0  0  0  0  0  0  0  0  0  0
   -0.6420   -2.6640    0.2510 C   0  0  0  0  0  0  0  0  0  0  0  0
   -0.3100   -3.6390   -0.1220 H   0  0  0  0  0  0  0  0  0  0  0  0
   -0.8250   -2.7850    1.3270 H   0  0  0  0  0  0  0  0  0  0  0  0
   -1.9580   -2.2750   -0.4560 C   0  0  0  0  0  0  0  0  0  0  0  0
   -1.8450   -2.4140   -1.5390 H   0  0  0  0  0  0  0  0  0  0  0  0
   -2.7710   -2.9250   -0.1170 H   0  0  0  0  0  0  0  0  0  0  0  0
    4.2000   -1.5780    0.0450 C   0  0  0  0  0  0  0  0  0  0  0  0
    4.4330   -2.6410    0.0760 H   0  0  0  0  0  0  0  0  0  0  0  0
    4.8950    0.6880   -0.0490 C   0  0  0  0  0  0  0  0  0  0  0  0
    2.0680   -3.3500    0.1780 O   0  0  0  0  0  0  0  0  0  0  0  0
    5.0390    2.8670   -0.1280 C   0  0  0  0  0  0  0  0  0  0  0  0
    5.6050    3.7870   -0.1750 H   0  0  0  0  0  0  0  0  0  0  0  0
    5.7730    1.7270   -0.1060 O   0  0  0  0  0  0  0  0  0  0  0  0
    3.6950    2.5780   -0.0850 C   0  0  0  0  0  0  0  0  0  0  0  0
    2.8940    3.3030   -0.0920 H   0  0  0  0  0  0  0  0  0  0  0  0
    5.2500   -0.6580   -0.0120 C   0  0  0  0  0  0  0  0  0  0  0  0
    6.2870   -0.9700   -0.0260 H   0  0  0  0  0  0  0  0  0  0  0  0
   -4.8310   -0.4450   -0.3000 C   0  0  0  0  0  0  0  0  0  0  0  0
   -5.1290   -1.4620   -0.5330 H   0  0  0  0  0  0  0  0  0  0  0  0
   -4.0880    2.2170    0.3070 C   0  0  0  0  0  0  0  0  0  0  0  0
   -3.8050    3.2380    0.5410 H   0  0  0  0  0  0  0  0  0  0  0  0
   -5.8000    0.5580   -0.1680 C   0  0  0  0  0  0  0  0  0  0  0  0
   -6.8510    0.3100   -0.3000 H   0  0  0  0  0  0  0  0  0  0  0  0
   -5.4310    1.8680    0.1310 C   0  0  0  0  0  0  0  0  0  0  0  0
   -6.2000    2.6320    0.2310 H   0  0  0  0  0  0  0  0  0  0  0  0
  1  2  1  0  0  0  0
  1  3  1  0  0  0  0
  1  9  2  0  0  0  0
  2  5  2  0  0  0  0
  2  6  1  0  0  0  0
  3  4  1  0  0  0  0
  3 15  1  0  0  0  0
  4 11  1  0  0  0  0
  4 24  2  0  0  0  0
  5 12  1  0  0  0  0
  5 18  1  0  0  0  0
  6  7  1  0  0  0  0
  6 14  1  0  0  0  0
  8  9  1  0  0  0  0
  8 11  1  0  0  0  0
  8 13  2  0  0  0  0
  9 10  1  0  0  0  0
 11 21  2  0  0  0  0
 12 14  2  0  0  0  0
 12 32  1  0  0  0  0
 13 23  1  0  0  0  0
 13 28  1  0  0  0  0
 14 34  1  0  0  0  0
 15 16  1  0  0  0  0
 15 17  1  0  0  0  0
 15 18  1  0  0  0  0
 18 19  1  0  0  0  0
 18 20  1  0  0  0  0
 21 22  1  0  0  0  0
 21 30  1  0  0  0  0
 23 27  1  0  0  0  0
 23 30  2  0  0  0  0
 25 26  1  0  0  0  0
 25 27  1  0  0  0  0
 25 28  2  0  0  0  0
 28 29  1  0  0  0  0
 30 31  1  0  0  0  0
 32 33  1  0  0  0  0
 32 36  2  0  0  0  0
 34 35  1  0  0  0  0
 34 38  2  0  0  0  0
 36 37  1  0  0  0  0
 36 38  1  0  0  0  0
 38 39  1  0  0  0  0
M  END
>  <IDNUMBER>
AP-122/41076198

>  <NAME>
Oxogambirtannine, derivative of

>  <ADD_INFO>
http://www.specs.net/enter.php?specsid=AP-122/41076198

>  <H_ACCEPTORS>
3

>  <H_DONORS>
1

>  <ROTATABLE_BONDS>
0

>  <LOGP>
3.75

>  <LOGS>
-5.9000001

>  <TPSA>
49.240002

>  <PRICE>
N08

$$$$
AP-122/41076199
  MOE2011           3D

 60 65  0  0  1  0  0  0  0  0999 V2000
   -2.6120    0.2360   -0.9730 N   0  0  0  0  0  0  0  0  0  0  0  0
   -2.4620    1.6170   -0.9440 C   0  0  0  0  0  0  0  0  0  0  0  0
   -1.1770    2.1490   -0.4130 C   0  0  0  0  0  0  0  0  0  0  0  0
   -0.2890    1.3140    0.3160 C   0  0  0  0  0  0  0  0  0  0  0  0
   -0.6680   -0.1420    0.5460 C   0  0  3  0  0  0  0  0  0  0  0  0
   -1.5140   -0.6710   -0.6320 C   0  0  3  0  0  0  0  0  0  0  0  0
   -0.8970    3.5110   -0.6150 C   0  0  0  0  0  0  0  0  0  0  0  0
   -1.5720    4.1550   -1.1690 H   0  0  0  0  0  0  0  0  0  0  0  0
    0.8710    1.8860    0.8690 C   0  0  0  0  0  0  0  0  0  0  0  0
    1.5770    1.3110    1.4560 H   0  0  0  0  0  0  0  0  0  0  0  0
    1.1240    3.2250    0.6440 C   0  0  0  0  0  0  0  0  0  0  0  0
    0.2660    4.0140   -0.0790 C   0  0  0  0  0  0  0  0  0  0  0  0
   -3.8920   -0.3430   -1.3810 C   0  0  0  0  0  0  0  0  0  0  0  0
   -4.4610    0.3780   -1.9800 H   0  0  0  0  0  0  0  0  0  0  0  0
   -3.6940   -1.1960   -2.0400 H   0  0  0  0  0  0  0  0  0  0  0  0
   -0.6550   -0.9820   -1.8690 C   0  0  0  0  0  0  0  0  0  0  0  0
   -1.2860   -1.3900   -2.6680 H   0  0  0  0  0  0  0  0  0  0  0  0
   -0.2060   -0.0670   -2.2730 H   0  0  0  0  0  0  0  0  0  0  0  0
   -3.3320    2.4050   -1.3090 O   0  0  0  0  0  0  0  0  0  0  0  0
    2.2070    3.9140    1.0960 O   0  0  0  0  0  0  0  0  0  0  0  0
    0.6960    5.3000   -0.1730 O   0  0  0  0  0  0  0  0  0  0  0  0
    0.4730   -1.1440    0.8420 C   0  0  0  0  0  0  0  0  0  0  0  0
    0.0130   -2.0630    1.2310 H   0  0  0  0  0  0  0  0  0  0  0  0
    1.1200   -0.7720    1.6430 H   0  0  0  0  0  0  0  0  0  0  0  0
    1.9320    5.2280    0.5670 C   0  0  0  0  0  0  0  0  0  0  0  0
    2.7550    5.5190   -0.0950 H   0  0  0  0  0  0  0  0  0  0  0  0
    1.8830    5.9380    1.4010 H   0  0  0  0  0  0  0  0  0  0  0  0
    2.1090   -0.4060   -0.7670 O   0  0  0  0  0  0  0  0  0  0  0  0
    1.3260   -1.5350   -0.3770 C   0  0  3  0  0  0  0  0  0  0  0  0
    0.4400   -1.9960   -1.5380 C   0  0  0  0  0  0  0  0  0  0  0  0
    1.0370   -2.1670   -2.4400 H   0  0  0  0  0  0  0  0  0  0  0  0
   -0.0270   -2.9530   -1.2760 H   0  0  0  0  0  0  0  0  0  0  0  0
   -4.7340   -0.7570   -0.1970 C   0  0  0  0  0  0  0  0  0  0  0  0
    3.3320   -0.7370   -1.4260 C   0  0  0  0  0  0  0  0  0  0  0  0
    3.1850   -1.5610   -2.1320 H   0  0  0  0  0  0  0  0  0  0  0  0
    3.6350    0.1370   -2.0140 H   0  0  0  0  0  0  0  0  0  0  0  0
    4.4300   -1.0390   -0.4350 C   0  0  0  0  0  0  0  0  0  0  0  0
   -5.4060    0.2080    0.5670 C   0  0  0  0  0  0  0  0  0  0  0  0
   -5.3310    1.2620    0.3050 H   0  0  0  0  0  0  0  0  0  0  0  0
   -4.8460   -2.1070    0.1660 C   0  0  0  0  0  0  0  0  0  0  0  0
   -4.3310   -2.8750   -0.4050 H   0  0  0  0  0  0  0  0  0  0  0  0
    5.2010   -2.2040   -0.5560 C   0  0  0  0  0  0  0  0  0  0  0  0
    5.0110   -2.9140   -1.3570 H   0  0  0  0  0  0  0  0  0  0  0  0
    4.7180   -0.1410    0.6030 C   0  0  0  0  0  0  0  0  0  0  0  0
    4.1390    0.7740    0.7070 H   0  0  0  0  0  0  0  0  0  0  0  0
   -5.6170   -2.4820    1.2680 C   0  0  0  0  0  0  0  0  0  0  0  0
   -5.6960   -3.5300    1.5420 H   0  0  0  0  0  0  0  0  0  0  0  0
   -6.1800   -0.1690    1.6660 C   0  0  0  0  0  0  0  0  0  0  0  0
   -6.6960    0.5880    2.2490 H   0  0  0  0  0  0  0  0  0  0  0  0
    6.2290   -2.4690    0.3520 C   0  0  0  0  0  0  0  0  0  0  0  0
    6.8210   -3.3750    0.2510 H   0  0  0  0  0  0  0  0  0  0  0  0
    5.7460   -0.4080    1.5100 C   0  0  0  0  0  0  0  0  0  0  0  0
    5.9580    0.2930    2.3120 H   0  0  0  0  0  0  0  0  0  0  0  0
   -6.2850   -1.5140    2.0160 C   0  0  0  0  0  0  0  0  0  0  0  0
   -6.8870   -1.8070    2.8720 H   0  0  0  0  0  0  0  0  0  0  0  0
    6.5010   -1.5730    1.3840 C   0  0  0  0  0  0  0  0  0  0  0  0
    7.3030   -1.7820    2.0870 H   0  0  0  0  0  0  0  0  0  0  0  0
   -1.3110   -0.1230    1.4380 H   0  0  0  0  0  0  0  0  0  0  0  0
   -1.9670   -1.6150   -0.3000 H   0  0  0  0  0  0  0  0  0  0  0  0
    1.9880   -2.3560   -0.0750 H   0  0  0  0  0  0  0  0  0  0  0  0
  1  2  1  0  0  0  0
  1  6  1  0  0  0  0
  1 13  1  0  0  0  0
  2  3  1  0  0  0  0
  2 19  2  0  0  0  0
  3  4  2  0  0  0  0
  3  7  1  0  0  0  0
  4  5  1  0  0  0  0
  4  9  1  0  0  0  0
  5  6  1  0  0  0  0
  5 22  1  0  0  0  0
  5 58  1  0  0  0  0
  6 16  1  0  0  0  0
  6 59  1  0  0  0  0
  7  8  1  0  0  0  0
  7 12  2  0  0  0  0
  9 10  1  0  0  0  0
  9 11  2  0  0  0  0
 11 12  1  0  0  0  0
 11 20  1  0  0  0  0
 12 21  1  0  0  0  0
 13 14  1  0  0  0  0
 13 15  1  0  0  0  0
 13 33  1  0  0  0  0
 16 17  1  0  0  0  0
 16 18  1  0  0  0  0
 16 30  1  0  0  0  0
 20 25  1  0  0  0  0
 21 25  1  0  0  0  0
 22 23  1  0  0  0  0
 22 24  1  0  0  0  0
 22 29  1  0  0  0  0
 25 26  1  0  0  0  0
 25 27  1  0  0  0  0
 28 29  1  0  0  0  0
 28 34  1  0  0  0  0
 29 30  1  0  0  0  0
 29 60  1  0  0  0  0
 30 31  1  0  0  0  0
 30 32  1  0  0  0  0
 33 38  2  0  0  0  0
 33 40  1  0  0  0  0
 34 35  1  0  0  0  0
 34 36  1  0  0  0  0
 34 37  1  0  0  0  0
 37 42  2  0  0  0  0
 37 44  1  0  0  0  0
 38 39  1  0  0  0  0
 38 48  1  0  0  0  0
 40 41  1  0  0  0  0
 40 46  2  0  0  0  0
 42 43  1  0  0  0  0
 42 50  1  0  0  0  0
 44 45  1  0  0  0  0
 44 52  2  0  0  0  0
 46 47  1  0  0  0  0
 46 54  1  0  0  0  0
 48 49  1  0  0  0  0
 48 54  2  0  0  0  0
 50 51  1  0  0  0  0
 50 56  2  0  0  0  0
 52 53  1  0  0  0  0
 52 56  1  0  0  0  0
 54 55  1  0  0  0  0
 56 57  1  0  0  0  0
M  END
>  <IDNUMBER>
AP-122/41076199

>  <NAME>
Narcicrinine, derivative of

>  <ADD_INFO>
http://www.specs.net/enter.php?specsid=AP-122/41076199

>  <H_ACCEPTORS>
3

>  <H_DONORS>
0

>  <ROTATABLE_BONDS>
5

>  <LOGP>
5.1599998

>  <LOGS>
-6.8299999

>  <TPSA>
48

>  <PRICE>
N08

$$$$
AP-122/41076203
  MOE2011           3D

 48 51  0  0  0  0  0  0  0  0999 V2000
    0.3460    0.4540    0.0670 C   0  0  0  0  0  0  0  0  0  0  0  0
   -0.1390    1.7550    0.2310 N   0  0  0  0  0  0  0  0  0  0  0  0
   -1.5050    2.0630    0.2840 C   0  0  0  0  0  0  0  0  0  0  0  0
   -0.5100   -0.5700   -0.0970 C   0  0  0  0  0  0  0  0  0  0  0  0
   -0.1790   -1.5860   -0.2770 H   0  0  0  0  0  0  0  0  0  0  0  0
   -2.4550    0.9350    0.1260 C   0  0  0  0  0  0  0  0  0  0  0  0
    1.8270    0.2460    0.0240 C   0  0  0  0  0  0  0  0  0  0  0  0
   -1.9560   -0.3520   -0.0620 C   0  0  0  0  0  0  0  0  0  0  0  0
    2.6570    1.3400   -0.2790 C   0  0  0  0  0  0  0  0  0  0  0  0
   -3.8370    1.1660    0.1650 C   0  0  0  0  0  0  0  0  0  0  0  0
   -4.1870    2.1830    0.3130 H   0  0  0  0  0  0  0  0  0  0  0  0
    2.4370   -0.9910    0.2990 C   0  0  0  0  0  0  0  0  0  0  0  0
    1.8160   -1.8300    0.5890 H   0  0  0  0  0  0  0  0  0  0  0  0
    0.8170    2.8550    0.3780 C   0  0  0  0  0  0  0  0  0  0  0  0
    0.3350    3.8140    0.1590 H   0  0  0  0  0  0  0  0  0  0  0  0
    1.1170    2.8800    1.4340 H   0  0  0  0  0  0  0  0  0  0  0  0
   -2.8480   -1.4210   -0.2110 C   0  0  0  0  0  0  0  0  0  0  0  0
   -2.4430   -2.4180   -0.3580 H   0  0  0  0  0  0  0  0  0  0  0  0
    3.8290   -1.1540    0.2220 C   0  0  0  0  0  0  0  0  0  0  0  0
   -4.7310    0.1010    0.0150 C   0  0  0  0  0  0  0  0  0  0  0  0
    4.0490    1.1810   -0.3730 C   0  0  0  0  0  0  0  0  0  0  0  0
    4.6480    2.0480   -0.6350 H   0  0  0  0  0  0  0  0  0  0  0  0
   -4.2320   -1.2050   -0.1710 C   0  0  0  0  0  0  0  0  0  0  0  0
    4.6420   -0.0590   -0.1240 C   0  0  0  0  0  0  0  0  0  0  0  0
   -1.9520    3.1960    0.4540 O   0  0  0  0  0  0  0  0  0  0  0  0
    2.0320    2.6870   -0.5280 C   0  0  0  0  0  0  0  0  0  0  0  0
    1.7400    2.7510   -1.5830 H   0  0  0  0  0  0  0  0  0  0  0  0
    2.7460    3.4920   -0.3230 H   0  0  0  0  0  0  0  0  0  0  0  0
    4.4850   -2.3370    0.4680 O   0  0  0  0  0  0  0  0  0  0  0  0
   -6.0990    0.2280    0.0390 O   0  0  0  0  0  0  0  0  0  0  0  0
   -5.1740   -2.1960   -0.3050 O   0  0  0  0  0  0  0  0  0  0  0  0
    5.9930   -0.3030   -0.1870 O   0  0  0  0  0  0  0  0  0  0  0  0
    6.8460    0.7930   -0.4870 C   0  0  0  0  0  0  0  0  0  0  0  0
    7.8770    0.4260   -0.4770 H   0  0  0  0  0  0  0  0  0  0  0  0
    6.7660    1.5760    0.2740 H   0  0  0  0  0  0  0  0  0  0  0  0
    6.6440    1.1880   -1.4880 H   0  0  0  0  0  0  0  0  0  0  0  0
    3.6990   -3.4740    0.7950 C   0  0  0  0  0  0  0  0  0  0  0  0
    4.3780   -4.3200    0.9370 H   0  0  0  0  0  0  0  0  0  0  0  0
    3.0160   -3.7320   -0.0210 H   0  0  0  0  0  0  0  0  0  0  0  0
    3.1570   -3.3230    1.7350 H   0  0  0  0  0  0  0  0  0  0  0  0
   -4.7160   -3.5330   -0.4490 C   0  0  0  0  0  0  0  0  0  0  0  0
   -5.5940   -4.1820   -0.5190 H   0  0  0  0  0  0  0  0  0  0  0  0
   -4.1380   -3.8490    0.4250 H   0  0  0  0  0  0  0  0  0  0  0  0
   -4.1390   -3.6550   -1.3720 H   0  0  0  0  0  0  0  0  0  0  0  0
   -6.6390    1.5340    0.1940 C   0  0  0  0  0  0  0  0  0  0  0  0
   -7.7300    1.4480    0.1740 H   0  0  0  0  0  0  0  0  0  0  0  0
   -6.3410    2.1850   -0.6340 H   0  0  0  0  0  0  0  0  0  0  0  0
   -6.3570    1.9650    1.1600 H   0  0  0  0  0  0  0  0  0  0  0  0
  1  2  1  0  0  0  0
  1  4  2  0  0  0  0
  1  7  1  0  0  0  0
  2  3  1  0  0  0  0
  2 14  1  0  0  0  0
  3  6  1  0  0  0  0
  3 25  2  0  0  0  0
  4  5  1  0  0  0  0
  4  8  1  0  0  0  0
  6  8  2  0  0  0  0
  6 10  1  0  0  0  0
  7  9  2  0  0  0  0
  7 12  1  0  0  0  0
  8 17  1  0  0  0  0
  9 21  1  0  0  0  0
  9 26  1  0  0  0  0
 10 11  1  0  0  0  0
 10 20  2  0  0  0  0
 12 13  1  0  0  0  0
 12 19  2  0  0  0  0
 14 15  1  0  0  0  0
 14 16  1  0  0  0  0
 14 26  1  0  0  0  0
 17 18  1  0  0  0  0
 17 23  2  0  0  0  0
 19 24  1  0  0  0  0
 19 29  1  0  0  0  0
 20 23  1  0  0  0  0
 20 30  1  0  0  0  0
 21 22  1  0  0  0  0
 21 24  2  0  0  0  0
 23 31  1  0  0  0  0
 24 32  1  0  0  0  0
 26 27  1  0  0  0  0
 26 28  1  0  0  0  0
 29 37  1  0  0  0  0
 30 45  1  0  0  0  0
 31 41  1  0  0  0  0
 32 33  1  0  0  0  0
 33 34  1  0  0  0  0
 33 35  1  0  0  0  0
 33 36  1  0  0  0  0
 37 38  1  0  0  0  0
 37 39  1  0  0  0  0
 37 40  1  0  0  0  0
 41 42  1  0  0  0  0
 41 43  1  0  0  0  0
 41 44  1  0  0  0  0
 45 46  1  0  0  0  0
 45 47  1  0  0  0  0
 45 48  1  0  0  0  0
M  END
>  <IDNUMBER>
AP-122/41076203

>  <NAME>
8-Oxopseudopalmatine

>  <ADD_INFO>
http://www.specs.net/enter.php?specsid=AP-122/41076203

>  <H_ACCEPTORS>
2

>  <H_DONORS>
0

>  <ROTATABLE_BONDS>
4

>  <LOGP>
2.4400001

>  <LOGS>
-3.96

>  <TPSA>
57.23

>  <PRICE>
N08

$$$$
AP-122/41076205
  MOE2011           3D

 33 35  0  0  0  0  0  0  0  0999 V2000
    0.9450    0.8080   -0.1590 C   0  0  0  0  0  0  0  0  0  0  0  0
   -0.4630    1.1510   -0.3050 C   0  0  0  0  0  0  0  0  0  0  0  0
    1.4330   -0.3720    0.3580 N   0  0  0  0  0  0  0  0  0  0  0  0
    0.8590   -1.1380    0.6840 H   0  0  0  0  0  0  0  0  0  0  0  0
    2.0470    1.6080   -0.4110 C   0  0  0  0  0  0  0  0  0  0  0  0
    2.0050    2.6210   -0.7920 H   0  0  0  0  0  0  0  0  0  0  0  0
   -1.3460    0.0990   -0.6390 N   0  0  0  0  0  0  0  0  0  0  0  0
    2.8080   -0.3710    0.3750 C   0  0  0  0  0  0  0  0  0  0  0  0
    3.2220    0.8710   -0.1010 C   0  0  0  0  0  0  0  0  0  0  0  0
   -0.8340    2.3120   -0.1350 O   0  0  0  0  0  0  0  0  0  0  0  0
   -2.7100    0.0640   -0.1570 C   0  0  0  0  0  0  0  0  0  0  0  0
   -0.9040   -0.9700   -1.5380 C   0  0  0  0  0  0  0  0  0  0  0  0
   -1.5690   -1.0160   -2.4070 H   0  0  0  0  0  0  0  0  0  0  0  0
   -0.9030   -1.9230   -1.0010 H   0  0  0  0  0  0  0  0  0  0  0  0
    0.0960   -0.7830   -1.9390 H   0  0  0  0  0  0  0  0  0  0  0  0
    3.7100   -1.3610    0.7850 C   0  0  0  0  0  0  0  0  0  0  0  0
    3.3690   -2.3220    1.1570 H   0  0  0  0  0  0  0  0  0  0  0  0
    4.6010    1.1470   -0.1750 C   0  0  0  0  0  0  0  0  0  0  0  0
    4.9540    2.1070   -0.5390 H   0  0  0  0  0  0  0  0  0  0  0  0
   -3.6150   -0.9200   -0.5970 C   0  0  0  0  0  0  0  0  0  0  0  0
   -3.3320   -1.6750   -1.3250 H   0  0  0  0  0  0  0  0  0  0  0  0
   -3.1810    0.9730    0.8060 C   0  0  0  0  0  0  0  0  0  0  0  0
   -2.5420    1.7430    1.2260 H   0  0  0  0  0  0  0  0  0  0  0  0
    5.5170    0.1670    0.2270 C   0  0  0  0  0  0  0  0  0  0  0  0
    6.5830    0.3730    0.1700 H   0  0  0  0  0  0  0  0  0  0  0  0
    5.0750   -1.0680    0.6990 C   0  0  0  0  0  0  0  0  0  0  0  0
    5.8020   -1.8150    1.0080 H   0  0  0  0  0  0  0  0  0  0  0  0
   -4.9300   -0.9760   -0.1190 C   0  0  0  0  0  0  0  0  0  0  0  0
   -5.6070   -1.7450   -0.4840 H   0  0  0  0  0  0  0  0  0  0  0  0
   -4.4960    0.9200    1.2850 C   0  0  0  0  0  0  0  0  0  0  0  0
   -4.8290    1.6410    2.0270 H   0  0  0  0  0  0  0  0  0  0  0  0
   -5.3720   -0.0530    0.8210 C   0  0  0  0  0  0  0  0  0  0  0  0
   -6.3910   -0.0950    1.1930 H   0  0  0  0  0  0  0  0  0  0  0  0
  1  2  1  0  0  0  0
  1  3  1  0  0  0  0
  1  5  2  0  0  0  0
  2  7  1  0  0  0  0
  2 10  2  0  0  0  0
  3  4  1  0  0  0  0
  3  8  1  0  0  0  0
  5  6  1  0  0  0  0
  5  9  1  0  0  0  0
  7 11  1  0  0  0  0
  7 12  1  0  0  0  0
  8  9  2  0  0  0  0
  8 16  1  0  0  0  0
  9 18  1  0  0  0  0
 11 20  2  0  0  0  0
 11 22  1  0  0  0  0
 12 13  1  0  0  0  0
 12 14  1  0  0  0  0
 12 15  1  0  0  0  0
 16 17  1  0  0  0  0
 16 26  2  0  0  0  0
 18 19  1  0  0  0  0
 18 24  2  0  0  0  0
 20 21  1  0  0  0  0
 20 28  1  0  0  0  0
 22 23  1  0  0  0  0
 22 30  2  0  0  0  0
 24 25  1  0  0  0  0
 24 26  1  0  0  0  0
 26 27  1  0  0  0  0
 28 29  1  0  0  0  0
 28 32  2  0  0  0  0
 30 31  1  0  0  0  0
 30 32  1  0  0  0  0
 32 33  1  0  0  0  0
M  END
>  <IDNUMBER>
AP-122/41076205

>  <NAME>
Indole, derivative of

>  <ADD_INFO>
http://www.specs.net/enter.php?specsid=AP-122/41076205

>  <H_ACCEPTORS>
3

>  <H_DONORS>
1

>  <ROTATABLE_BONDS>
3

>  <LOGP>
3.23

>  <LOGS>
-3.79

>  <TPSA>
36.099998

>  <PRICE>
N08

$$$$
AP-122/41076209
  MOE2011           3D

 24 25  0  0  0  0  0  0  0  0999 V2000
   -0.8170   -2.3560    0.7440 N   0  0  0  0  0  0  0  0  0  0  0  0
   -1.3800   -3.1720    0.9450 H   0  0  0  0  0  0  0  0  0  0  0  0
    0.5210   -2.2460    0.9800 C   0  0  0  0  0  0  0  0  0  0  0  0
    1.0690   -3.0710    1.4190 H   0  0  0  0  0  0  0  0  0  0  0  0
    0.9390   -0.9910    0.5750 C   0  0  0  0  0  0  0  0  0  0  0  0
   -0.2260   -0.3030    0.0620 C   0  0  0  0  0  0  0  0  0  0  0  0
    3.6500   -0.8120   -1.5750 N   0  0  0  0  0  0  0  0  0  0  0  0
    0.9300    3.5150    1.4630 N   0  0  0  0  0  0  0  0  0  0  0  0
   -1.3000   -1.1940    0.1920 C   0  0  0  0  0  0  0  0  0  0  0  0
    3.0690   -0.6890   -0.5770 C   0  0  0  0  0  0  0  0  0  0  0  0
    0.7530    2.8760    0.5100 C   0  0  0  0  0  0  0  0  0  0  0  0
   -0.4850    0.9840   -0.4980 C   0  0  0  0  0  0  0  0  0  0  0  0
    2.3480   -0.5050    0.6900 C   0  0  0  0  0  0  0  0  0  0  0  0
    2.8660   -1.0570    1.4840 H   0  0  0  0  0  0  0  0  0  0  0  0
    2.3670    0.5460    0.9940 H   0  0  0  0  0  0  0  0  0  0  0  0
    0.5550    2.0660   -0.6990 C   0  0  0  0  0  0  0  0  0  0  0  0
    0.2560    2.7150   -1.5310 H   0  0  0  0  0  0  0  0  0  0  0  0
    1.5000    1.6160   -1.0150 H   0  0  0  0  0  0  0  0  0  0  0  0
   -2.8530    0.3730   -0.7220 C   0  0  0  0  0  0  0  0  0  0  0  0
   -3.8620    0.6450   -1.0230 H   0  0  0  0  0  0  0  0  0  0  0  0
   -2.6100   -0.8880   -0.1900 C   0  0  0  0  0  0  0  0  0  0  0  0
   -3.4170   -1.6050   -0.0720 H   0  0  0  0  0  0  0  0  0  0  0  0
   -1.8170    1.2890   -0.8710 C   0  0  0  0  0  0  0  0  0  0  0  0
   -2.0540    2.2660   -1.2890 H   0  0  0  0  0  0  0  0  0  0  0  0
  1  2  1  0  0  0  0
  1  3  1  0  0  0  0
  1  9  1  0  0  0  0
  3  4  1  0  0  0  0
  3  5  2  0  0  0  0
  5  6  1  0  0  0  0
  5 13  1  0  0  0  0
  6  9  2  0  0  0  0
  6 12  1  0  0  0  0
  7 10  3  0  0  0  0
  8 11  3  0  0  0  0
  9 21  1  0  0  0  0
 10 13  1  0  0  0  0
 11 16  1  0  0  0  0
 12 16  1  0  0  0  0
 12 23  2  0  0  0  0
 13 14  1  0  0  0  0
 13 15  1  0  0  0  0
 16 17  1  0  0  0  0
 16 18  1  0  0  0  0
 19 20  1  0  0  0  0
 19 21  2  0  0  0  0
 19 23  1  0  0  0  0
 21 22  1  0  0  0  0
 23 24  1  0  0  0  0
M  END
>  <IDNUMBER>
AP-122/41076209

>  <NAME>
Indole, derivative of

>  <ADD_INFO>
http://www.specs.net/enter.php?specsid=AP-122/41076209

>  <H_ACCEPTORS>
3

>  <H_DONORS>
1

>  <ROTATABLE_BONDS>
2

>  <LOGP>
1.1900001

>  <LOGS>
-1.91

>  <TPSA>
63.369999

>  <PRICE>
N08

$$$$
AP-123/12362131
  MOE2011           3D

 24 25  0  0  0  0  0  0  0  0999 V2000
   -2.5110   -1.6880   -0.0040 C   0  0  0  0  0  0  0  0  0  0  0  0
   -2.9830   -0.2780   -0.0020 C   0  0  0  0  0  0  0  0  0  0  0  0
   -2.1480    0.7790   -0.0010 C   0  0  0  0  0  0  0  0  0  0  0  0
   -1.1380   -1.8780   -0.0040 O   0  0  0  0  0  0  0  0  0  0  0  0
   -0.2390   -0.7970   -0.0040 C   0  0  0  0  0  0  0  0  0  0  0  0
   -0.6930    0.5200   -0.0030 C   0  0  0  0  0  0  0  0  0  0  0  0
    1.1200   -1.1340   -0.0050 C   0  0  0  0  0  0  0  0  0  0  0  0
    1.3930   -2.1830   -0.0060 H   0  0  0  0  0  0  0  0  0  0  0  0
    0.2800    1.5270   -0.0050 C   0  0  0  0  0  0  0  0  0  0  0  0
    0.0090    2.5800   -0.0050 H   0  0  0  0  0  0  0  0  0  0  0  0
   -3.2740   -2.6480   -0.0050 O   0  0  0  0  0  0  0  0  0  0  0  0
   -4.7110   -0.0960    0.0010 Cl  0  0  0  0  0  0  0  0  0  0  0  0
    2.0730   -0.1210   -0.0060 C   0  0  0  0  0  0  0  0  0  0  0  0
    1.6450    1.2080   -0.0070 C   0  0  0  0  0  0  0  0  0  0  0  0
    2.3810    2.0090   -0.0080 H   0  0  0  0  0  0  0  0  0  0  0  0
   -2.5980    2.2190    0.0030 C   0  0  0  0  0  0  0  0  0  0  0  0
   -2.2260    2.7350    0.8950 H   0  0  0  0  0  0  0  0  0  0  0  0
   -3.6830    2.3440    0.0030 H   0  0  0  0  0  0  0  0  0  0  0  0
   -2.2260    2.7400   -0.8870 H   0  0  0  0  0  0  0  0  0  0  0  0
    3.4290   -0.2900   -0.0070 O   0  0  0  0  0  0  0  0  0  0  0  0
    3.9100   -1.6290    0.0100 C   0  0  0  0  0  0  0  0  0  0  0  0
    5.0030   -1.5920    0.0130 H   0  0  0  0  0  0  0  0  0  0  0  0
    3.5970   -2.1730   -0.8870 H   0  0  0  0  0  0  0  0  0  0  0  0
    3.5920   -2.1510    0.9190 H   0  0  0  0  0  0  0  0  0  0  0  0
  1  2  1  0  0  0  0
  1  4  1  0  0  0  0
  1 11  2  0  0  0  0
  2  3  2  0  0  0  0
  2 12  1  0  0  0  0
  3  6  1  0  0  0  0
  3 16  1  0  0  0  0
  4  5  1  0  0  0  0
  5  6  2  0  0  0  0
  5  7  1  0  0  0  0
  6  9  1  0  0  0  0
  7  8  1  0  0  0  0
  7 13  2  0  0  0  0
  9 10  1  0  0  0  0
  9 14  2  0  0  0  0
 13 14  1  0  0  0  0
 13 20  1  0  0  0  0
 14 15  1  0  0  0  0
 16 17  1  0  0  0  0
 16 18  1  0  0  0  0
 16 19  1  0  0  0  0
 20 21  1  0  0  0  0
 21 22  1  0  0  0  0
 21 23  1  0  0  0  0
 21 24  1  0  0  0  0
M  END
>  <IDNUMBER>
AP-123/12362131

>  <NAME>
Hymecromone-methylether, derivative of

>  <ADD_INFO>
http://www.specs.net/enter.php?specsid=AP-123/12362131

>  <H_ACCEPTORS>
1

>  <H_DONORS>
0

>  <ROTATABLE_BONDS>
1

>  <LOGP>
2.6300001

>  <LOGS>
-3.0899999

>  <TPSA>
35.529999

>  <PRICE>
N05

$$$$
AP-123/32585053
  MOE2011           3D

 61 64  0  0  1  0  0  0  0  0999 V2000
    3.3280   -0.3480    0.0680 C   0  0  3  0  0  0  0  0  0  0  0  0
    1.2460   -2.0560   -0.8040 S   0  0  0  0  0  0  0  0  0  0  0  0
    4.6420   -0.1460    0.8950 C   0  0  0  0  0  0  0  0  0  0  0  0
    2.4710    0.7490    0.7080 C   0  0  0  0  0  0  0  0  0  0  0  0
   -3.6770   -1.2260    0.7910 C   0  0  0  0  0  0  0  0  0  0  0  0
   -1.3380   -1.5160   -0.1600 C   0  0  3  0  0  0  0  0  0  0  0  0
    0.0970   -1.4030    0.2530 N   0  0  3  0  0  0  0  0  0  0  0  0
    0.3410   -0.4150    0.5080 H   0  0  0  0  0  0  0  0  0  0  0  0
    2.7690   -1.7610    0.0920 C   0  0  0  0  0  0  0  0  0  0  0  0
    2.5840   -2.1070    1.1150 H   0  0  0  0  0  0  0  0  0  0  0  0
    3.4950   -2.4520   -0.3520 H   0  0  0  0  0  0  0  0  0  0  0  0
   -5.7030   -2.0560    0.3750 N   0  0  0  0  0  0  0  0  0  0  0  0
   -6.4460   -2.7140    0.1850 H   0  0  0  0  0  0  0  0  0  0  0  0
   -4.3910   -2.3880    0.5730 C   0  0  0  0  0  0  0  0  0  0  0  0
   -4.0750   -3.4230    0.5360 H   0  0  0  0  0  0  0  0  0  0  0  0
    4.7030    1.3720    0.5790 C   0  0  3  0  0  0  0  0  0  0  0  0
   -1.6380   -0.6320   -1.3610 C   0  0  0  0  0  0  0  0  0  0  0  0
   -2.2060   -1.1240    1.0430 C   0  0  0  0  0  0  0  0  0  0  0  0
   -1.9560   -1.7710    1.8940 H   0  0  0  0  0  0  0  0  0  0  0  0
   -1.9560   -0.1050    1.3670 H   0  0  0  0  0  0  0  0  0  0  0  0
    3.6930    0.2490   -1.3150 C   0  0  0  0  0  0  0  0  0  0  0  0
    4.1790   -0.4820   -1.9690 H   0  0  0  0  0  0  0  0  0  0  0  0
    2.8230    0.6520   -1.8440 H   0  0  0  0  0  0  0  0  0  0  0  0
   -4.6170   -0.1440    0.7360 C   0  0  0  0  0  0  0  0  0  0  0  0
    3.3510    1.9200    1.0930 C   0  0  0  0  0  0  0  0  0  0  0  0
    3.0400    2.8330    0.5790 H   0  0  0  0  0  0  0  0  0  0  0  0
    3.3450    2.0620    2.1750 H   0  0  0  0  0  0  0  0  0  0  0  0
    1.0340   -3.4890   -0.8430 O   0  0  0  0  0  0  0  0  0  0  0  0
    1.2410   -1.2790   -2.0220 O   0  0  0  0  0  0  0  0  0  0  0  0
   -5.8710   -0.6950    0.4710 C   0  0  0  0  0  0  0  0  0  0  0  0
    4.6590    1.4030   -0.9660 C   0  0  0  0  0  0  0  0  0  0  0  0
    4.3010    2.3620   -1.3540 H   0  0  0  0  0  0  0  0  0  0  0  0
    5.6490    1.2250   -1.3990 H   0  0  0  0  0  0  0  0  0  0  0  0
    1.2600    0.7020    0.8720 O   0  0  0  0  0  0  0  0  0  0  0  0
   -2.2480   -1.0120   -2.3530 O   0  0  0  0  0  0  0  0  0  0  0  0
   -1.1520    0.6290   -1.1680 O   0  0  0  0  0  0  0  0  0  0  0  0
    4.5190   -0.4680    2.4000 C   0  0  0  0  0  0  0  0  0  0  0  0
    5.3770   -0.0630    2.9480 H   0  0  0  0  0  0  0  0  0  0  0  0
    4.5000   -1.5510    2.5670 H   0  0  0  0  0  0  0  0  0  0  0  0
    3.6150   -0.0700    2.8680 H   0  0  0  0  0  0  0  0  0  0  0  0
    5.8630   -0.9350    0.3800 C   0  0  0  0  0  0  0  0  0  0  0  0
    6.7780   -0.5850    0.8730 H   0  0  0  0  0  0  0  0  0  0  0  0
    6.0290   -0.8550   -0.6970 H   0  0  0  0  0  0  0  0  0  0  0  0
    5.7570   -2.0040    0.5990 H   0  0  0  0  0  0  0  0  0  0  0  0
   -4.5180    1.2560    0.8850 C   0  0  0  0  0  0  0  0  0  0  0  0
   -3.5600    1.7230    1.0920 H   0  0  0  0  0  0  0  0  0  0  0  0
   -7.0290    0.0820    0.3440 C   0  0  0  0  0  0  0  0  0  0  0  0
   -7.9940   -0.3680    0.1360 H   0  0  0  0  0  0  0  0  0  0  0  0
   -1.2840    1.5310   -2.2760 C   0  0  0  0  0  0  0  0  0  0  0  0
   -0.4680    2.2570   -2.1970 H   0  0  0  0  0  0  0  0  0  0  0  0
   -1.1570    1.0080   -3.2310 H   0  0  0  0  0  0  0  0  0  0  0  0
   -2.6170    2.2500   -2.2110 C   0  0  0  0  0  0  0  0  0  0  0  0
   -2.7160    2.7880   -1.2630 H   0  0  0  0  0  0  0  0  0  0  0  0
   -3.4500    1.5430   -2.2680 H   0  0  0  0  0  0  0  0  0  0  0  0
   -2.7100    2.9670   -3.0320 H   0  0  0  0  0  0  0  0  0  0  0  0
   -5.6650    2.0480    0.7610 C   0  0  0  0  0  0  0  0  0  0  0  0
   -5.5910    3.1270    0.8740 H   0  0  0  0  0  0  0  0  0  0  0  0
   -6.9010    1.4660    0.4930 C   0  0  0  0  0  0  0  0  0  0  0  0
   -7.7810    2.0970    0.3990 H   0  0  0  0  0  0  0  0  0  0  0  0
   -1.5380   -2.5580   -0.4390 H   0  0  0  0  0  0  0  0  0  0  0  0
    5.5630    1.9040    0.9930 H   0  0  0  0  0  0  0  0  0  0  0  0
  1  3  1  0  0  0  0
  1  4  1  0  0  0  0
  1  9  1  0  0  0  0
  1 21  1  0  0  0  0
  2  7  1  0  0  0  0
  2  9  1  0  0  0  0
  2 28  2  0  0  0  0
  2 29  2  0  0  0  0
  3 16  1  0  0  0  0
  3 37  1  0  0  0  0
  3 41  1  0  0  0  0
  4 25  1  0  0  0  0
  4 34  2  0  0  0  0
  5 14  2  0  0  0  0
  5 18  1  0  0  0  0
  5 24  1  0  0  0  0
  6  7  1  0  0  0  0
  6 17  1  0  0  0  0
  6 18  1  0  0  0  0
  6 60  1  0  0  0  0
  7  8  1  0  0  0  0
  9 10  1  0  0  0  0
  9 11  1  0  0  0  0
 12 13  1  0  0  0  0
 12 14  1  0  0  0  0
 12 30  1  0  0  0  0
 14 15  1  0  0  0  0
 16 25  1  0  0  0  0
 16 31  1  0  0  0  0
 16 61  1  0  0  0  0
 17 35  2  0  0  0  0
 17 36  1  0  0  0  0
 18 19  1  0  0  0  0
 18 20  1  0  0  0  0
 21 22  1  0  0  0  0
 21 23  1  0  0  0  0
 21 31  1  0  0  0  0
 24 30  2  0  0  0  0
 24 45  1  0  0  0  0
 25 26  1  0  0  0  0
 25 27  1  0  0  0  0
 30 47  1  0  0  0  0
 31 32  1  0  0  0  0
 31 33  1  0  0  0  0
 36 49  1  0  0  0  0
 37 38  1  0  0  0  0
 37 39  1  0  0  0  0
 37 40  1  0  0  0  0
 41 42  1  0  0  0  0
 41 43  1  0  0  0  0
 41 44  1  0  0  0  0
 45 46  1  0  0  0  0
 45 56  2  0  0  0  0
 47 48  1  0  0  0  0
 47 58  2  0  0  0  0
 49 50  1  0  0  0  0
 49 51  1  0  0  0  0
 49 52  1  0  0  0  0
 52 53  1  0  0  0  0
 52 54  1  0  0  0  0
 52 55  1  0  0  0  0
 56 57  1  0  0  0  0
 56 58  1  0  0  0  0
 58 59  1  0  0  0  0
M  END
>  <IDNUMBER>
AP-123/32585053

>  <NAME>
Tryptamine, derivative of

>  <ADD_INFO>
http://www.specs.net/enter.php?specsid=AP-123/32585053

>  <H_ACCEPTORS>
7

>  <H_DONORS>
2

>  <ROTATABLE_BONDS>
9

>  <LOGP>
3.8199999

>  <LOGS>
-5.7199998

>  <TPSA>
113.71

>  <PRICE>
N05

$$$$
AP-123/40765210
  MOE2011           3D

 38 40  0  0  0  0  0  0  0  0999 V2000
    1.8630    2.1620    0.2490 N   0  3  0  0  0  0  0  0  0  0  0  0
    0.1060    0.5020    0.1870 C   0  0  0  0  0  0  0  0  0  0  0  0
    1.5410    0.8780    0.1810 C   0  0  0  0  0  0  0  0  0  0  0  0
   -0.8280    1.4880   -0.1470 C   0  0  0  0  0  0  0  0  0  0  0  0
   -0.3240   -0.7850    0.5050 C   0  0  0  0  0  0  0  0  0  0  0  0
    0.3800   -1.5610    0.7930 H   0  0  0  0  0  0  0  0  0  0  0  0
   -1.6870   -1.1040    0.4510 C   0  0  0  0  0  0  0  0  0  0  0  0
   -2.1930    1.1700   -0.1900 C   0  0  0  0  0  0  0  0  0  0  0  0
   -2.8930    1.9560   -0.4580 H   0  0  0  0  0  0  0  0  0  0  0  0
   -2.6380   -0.1220    0.1220 C   0  0  0  0  0  0  0  0  0  0  0  0
    3.0790    2.5470    0.2070 O   0  5  0  0  0  0  0  0  0  0  0  0
    0.8390    3.2230    0.4000 C   0  0  0  0  0  0  0  0  0  0  0  0
    0.5710    3.2600    1.4620 H   0  0  0  0  0  0  0  0  0  0  0  0
    1.2780    4.1810    0.1060 H   0  0  0  0  0  0  0  0  0  0  0  0
    2.5990   -0.1460    0.0660 C   0  0  0  0  0  0  0  0  0  0  0  0
   -0.3400    2.8690   -0.4870 C   0  0  0  0  0  0  0  0  0  0  0  0
   -1.1340    3.6090   -0.3390 H   0  0  0  0  0  0  0  0  0  0  0  0
   -0.0530    2.8900   -1.5450 H   0  0  0  0  0  0  0  0  0  0  0  0
   -1.9770   -2.4000    0.8000 O   0  0  0  0  0  0  0  0  0  0  0  0
   -3.9570   -0.4910    0.1560 O   0  0  0  0  0  0  0  0  0  0  0  0
    2.6410   -0.9630   -1.0670 C   0  0  0  0  0  0  0  0  0  0  0  0
    1.9190   -0.8390   -1.8700 H   0  0  0  0  0  0  0  0  0  0  0  0
    3.5350   -0.3040    1.0920 C   0  0  0  0  0  0  0  0  0  0  0  0
    3.5090    0.3360    1.9700 H   0  0  0  0  0  0  0  0  0  0  0  0
   -2.8820   -3.0600   -0.0820 C   0  0  0  0  0  0  0  0  0  0  0  0
   -2.6300   -4.1250   -0.0770 H   0  0  0  0  0  0  0  0  0  0  0  0
   -2.8000   -2.7060   -1.1160 H   0  0  0  0  0  0  0  0  0  0  0  0
   -3.9070   -2.9640    0.2850 H   0  0  0  0  0  0  0  0  0  0  0  0
   -4.9330    0.4980   -0.1450 C   0  0  0  0  0  0  0  0  0  0  0  0
   -5.9180    0.0280   -0.0660 H   0  0  0  0  0  0  0  0  0  0  0  0
   -4.8210    0.8630   -1.1710 H   0  0  0  0  0  0  0  0  0  0  0  0
   -4.8980    1.3200    0.5770 H   0  0  0  0  0  0  0  0  0  0  0  0
    3.6250   -1.9460   -1.1710 C   0  0  0  0  0  0  0  0  0  0  0  0
    3.6660   -2.5840   -2.0500 H   0  0  0  0  0  0  0  0  0  0  0  0
    4.5180   -1.2870    0.9810 C   0  0  0  0  0  0  0  0  0  0  0  0
    5.2520   -1.4120    1.7720 H   0  0  0  0  0  0  0  0  0  0  0  0
    4.5620   -2.1080   -0.1480 C   0  0  0  0  0  0  0  0  0  0  0  0
    5.3300   -2.8720   -0.2330 H   0  0  0  0  0  0  0  0  0  0  0  0
  1  3  2  0  0  0  0
  1 11  1  0  0  0  0
  1 12  1  0  0  0  0
  2  3  1  0  0  0  0
  2  4  2  0  0  0  0
  2  5  1  0  0  0  0
  3 15  1  0  0  0  0
  4  8  1  0  0  0  0
  4 16  1  0  0  0  0
  5  6  1  0  0  0  0
  5  7  2  0  0  0  0
  7 10  1  0  0  0  0
  7 19  1  0  0  0  0
  8  9  1  0  0  0  0
  8 10  2  0  0  0  0
 10 20  1  0  0  0  0
 12 13  1  0  0  0  0
 12 14  1  0  0  0  0
 12 16  1  0  0  0  0
 15 21  2  0  0  0  0
 15 23  1  0  0  0  0
 16 17  1  0  0  0  0
 16 18  1  0  0  0  0
 19 25  1  0  0  0  0
 20 29  1  0  0  0  0
 21 22  1  0  0  0  0
 21 33  1  0  0  0  0
 23 24  1  0  0  0  0
 23 35  2  0  0  0  0
 25 26  1  0  0  0  0
 25 27  1  0  0  0  0
 25 28  1  0  0  0  0
 29 30  1  0  0  0  0
 29 31  1  0  0  0  0
 29 32  1  0  0  0  0
 33 34  1  0  0  0  0
 33 37  2  0  0  0  0
 35 36  1  0  0  0  0
 35 37  1  0  0  0  0
 37 38  1  0  0  0  0
M  CHG  1   1   1
M  CHG  1  11  -1
M  END
>  <IDNUMBER>
AP-123/40765210

>  <NAME>
Dehydrosalsolidine, derivative of

>  <ADD_INFO>
http://www.specs.net/enter.php?specsid=AP-123/40765210

>  <H_ACCEPTORS>
0

>  <H_DONORS>
0

>  <ROTATABLE_BONDS>
3

>  <LOGP>
2.8099999

>  <LOGS>
-3.6600001

>  <TPSA>
44.529999

>  <PRICE>
N05

$$$$
AP-123/40765213
  MOE2011           3D

 58 61  0  0  0  0  0  0  0  0999 V2000
   -3.1620   -0.9700   -0.0110 C   0  0  0  0  0  0  0  0  0  0  0  0
   -2.5290   -2.2030    0.5530 C   0  0  0  0  0  0  0  0  0  0  0  0
   -3.2890    0.2270    0.7030 C   0  0  0  0  0  0  0  0  0  0  0  0
   -2.9470    0.2770    1.7280 H   0  0  0  0  0  0  0  0  0  0  0  0
   -2.7070   -3.3840    0.0490 N   0  0  0  0  0  0  0  0  0  0  0  0
   -3.6120   -1.0510   -1.3340 C   0  0  0  0  0  0  0  0  0  0  0  0
   -3.8500    1.3620    0.0970 C   0  0  0  0  0  0  0  0  0  0  0  0
   -4.1530    0.0790   -1.9480 C   0  0  0  0  0  0  0  0  0  0  0  0
   -4.4820    0.0370   -2.9840 H   0  0  0  0  0  0  0  0  0  0  0  0
   -4.2960    1.2730   -1.2330 C   0  0  0  0  0  0  0  0  0  0  0  0
    1.4680    0.1670    1.2180 C   0  0  0  0  0  0  0  0  0  0  0  0
   -1.5780   -2.0900    1.7370 C   0  0  0  0  0  0  0  0  0  0  0  0
   -2.0080   -1.4600    2.5210 H   0  0  0  0  0  0  0  0  0  0  0  0
   -1.4660   -3.0810    2.1980 H   0  0  0  0  0  0  0  0  0  0  0  0
    2.3350   -0.6950    0.5190 C   0  0  0  0  0  0  0  0  0  0  0  0
    0.2090   -0.2940    1.6270 C   0  0  0  0  0  0  0  0  0  0  0  0
   -0.4550    0.3460    2.1970 H   0  0  0  0  0  0  0  0  0  0  0  0
    3.5590   -0.1740    0.1760 O   0  0  0  0  0  0  0  0  0  0  0  0
   -0.2130   -1.5950    1.3200 C   0  0  0  0  0  0  0  0  0  0  0  0
    1.9110   -1.9910    0.2090 C   0  0  0  0  0  0  0  0  0  0  0  0
    2.5340   -2.6850   -0.3440 H   0  0  0  0  0  0  0  0  0  0  0  0
   -3.6220   -3.5020   -1.0920 C   0  0  0  0  0  0  0  0  0  0  0  0
   -3.4140   -4.4450   -1.6090 H   0  0  0  0  0  0  0  0  0  0  0  0
   -4.6530   -3.5610   -0.7210 H   0  0  0  0  0  0  0  0  0  0  0  0
    0.6460   -2.4330    0.6020 C   0  0  0  0  0  0  0  0  0  0  0  0
    0.3330   -3.4440    0.3450 H   0  0  0  0  0  0  0  0  0  0  0  0
    4.4990   -1.0450   -0.4440 C   0  0  0  0  0  0  0  0  0  0  0  0
    4.7080   -1.9090    0.1990 H   0  0  0  0  0  0  0  0  0  0  0  0
    4.1180   -1.4040   -1.4080 H   0  0  0  0  0  0  0  0  0  0  0  0
   -3.9510    2.5820    0.7110 O   0  0  0  0  0  0  0  0  0  0  0  0
   -4.8380    2.3040   -1.9600 O   0  0  0  0  0  0  0  0  0  0  0  0
    1.9420    1.4310    1.4740 O   0  0  0  0  0  0  0  0  0  0  0  0
   -3.4570   -2.3480   -2.0730 C   0  0  0  0  0  0  0  0  0  0  0  0
   -2.4630   -2.3750   -2.5360 H   0  0  0  0  0  0  0  0  0  0  0  0
   -4.2060   -2.4370   -2.8680 H   0  0  0  0  0  0  0  0  0  0  0  0
    5.7710   -0.2710   -0.6820 C   0  0  0  0  0  0  0  0  0  0  0  0
    0.9950    2.4110    1.8770 C   0  0  0  0  0  0  0  0  0  0  0  0
    1.4980    3.3830    1.8740 H   0  0  0  0  0  0  0  0  0  0  0  0
    0.6450    2.2210    2.8960 H   0  0  0  0  0  0  0  0  0  0  0  0
    0.1550    2.4700    1.1750 H   0  0  0  0  0  0  0  0  0  0  0  0
   -5.8580    3.0320   -1.2820 C   0  0  0  0  0  0  0  0  0  0  0  0
   -6.5580    3.4020   -2.0380 H   0  0  0  0  0  0  0  0  0  0  0  0
   -5.4310    3.9040   -0.7780 H   0  0  0  0  0  0  0  0  0  0  0  0
   -6.4270    2.4120   -0.5800 H   0  0  0  0  0  0  0  0  0  0  0  0
   -3.6680    2.6580    2.1020 C   0  0  0  0  0  0  0  0  0  0  0  0
   -3.8930    3.6760    2.4340 H   0  0  0  0  0  0  0  0  0  0  0  0
   -2.6060    2.4730    2.2960 H   0  0  0  0  0  0  0  0  0  0  0  0
   -4.3020    1.9730    2.6750 H   0  0  0  0  0  0  0  0  0  0  0  0
    6.8510   -0.3780    0.2060 C   0  0  0  0  0  0  0  0  0  0  0  0
    6.7860   -1.0240    1.0780 H   0  0  0  0  0  0  0  0  0  0  0  0
    5.8780    0.5910   -1.7820 C   0  0  0  0  0  0  0  0  0  0  0  0
    5.0430    0.7040   -2.4710 H   0  0  0  0  0  0  0  0  0  0  0  0
    8.0220    0.3490   -0.0160 C   0  0  0  0  0  0  0  0  0  0  0  0
    8.8550    0.2580    0.6760 H   0  0  0  0  0  0  0  0  0  0  0  0
    7.0500    1.3160   -2.0020 C   0  0  0  0  0  0  0  0  0  0  0  0
    7.1240    1.9800   -2.8590 H   0  0  0  0  0  0  0  0  0  0  0  0
    8.1230    1.1920   -1.1210 C   0  0  0  0  0  0  0  0  0  0  0  0
    9.0350    1.7570   -1.2920 H   0  0  0  0  0  0  0  0  0  0  0  0
  1  2  1  0  0  0  0
  1  3  2  0  0  0  0
  1  6  1  0  0  0  0
  2  5  2  0  0  0  0
  2 12  1  0  0  0  0
  3  4  1  0  0  0  0
  3  7  1  0  0  0  0
  5 22  1  0  0  0  0
  6  8  2  0  0  0  0
  6 33  1  0  0  0  0
  7 10  2  0  0  0  0
  7 30  1  0  0  0  0
  8  9  1  0  0  0  0
  8 10  1  0  0  0  0
 10 31  1  0  0  0  0
 11 15  2  0  0  0  0
 11 16  1  0  0  0  0
 11 32  1  0  0  0  0
 12 13  1  0  0  0  0
 12 14  1  0  0  0  0
 12 19  1  0  0  0  0
 15 18  1  0  0  0  0
 15 20  1  0  0  0  0
 16 17  1  0  0  0  0
 16 19  2  0  0  0  0
 18 27  1  0  0  0  0
 19 25  1  0  0  0  0
 20 21  1  0  0  0  0
 20 25  2  0  0  0  0
 22 23  1  0  0  0  0
 22 24  1  0  0  0  0
 22 33  1  0  0  0  0
 25 26  1  0  0  0  0
 27 28  1  0  0  0  0
 27 29  1  0  0  0  0
 27 36  1  0  0  0  0
 30 45  1  0  0  0  0
 31 41  1  0  0  0  0
 32 37  1  0  0  0  0
 33 34  1  0  0  0  0
 33 35  1  0  0  0  0
 36 49  2  0  0  0  0
 36 51  1  0  0  0  0
 37 38  1  0  0  0  0
 37 39  1  0  0  0  0
 37 40  1  0  0  0  0
 41 42  1  0  0  0  0
 41 43  1  0  0  0  0
 41 44  1  0  0  0  0
 45 46  1  0  0  0  0
 45 47  1  0  0  0  0
 45 48  1  0  0  0  0
 49 50  1  0  0  0  0
 49 53  1  0  0  0  0
 51 52  1  0  0  0  0
 51 55  2  0  0  0  0
 53 54  1  0  0  0  0
 53 57  2  0  0  0  0
 55 56  1  0  0  0  0
 55 57  1  0  0  0  0
 57 58  1  0  0  0  0
M  END
>  <IDNUMBER>
AP-123/40765213

>  <NAME>
Laudanosine, derivative of

>  <ADD_INFO>
http://www.specs.net/enter.php?specsid=AP-123/40765213

>  <H_ACCEPTORS>
1

>  <H_DONORS>
0

>  <ROTATABLE_BONDS>
8

>  <LOGP>
7.1999998

>  <LOGS>
-8.3900003

>  <TPSA>
49.279999

>  <PRICE>
N05

>  <SALTDATA>
CH3I

$$$$
AP-123/40765216
  MOE2011           3D

 25 27  0  0  0  0  0  0  0  0999 V2000
    0.4490    0.3750    0.0030 C   0  0  0  0  0  0  0  0  0  0  0  0
   -0.6510    1.2320   -0.1120 C   0  0  0  0  0  0  0  0  0  0  0  0
   -0.5510    2.3060   -0.2170 H   0  0  0  0  0  0  0  0  0  0  0  0
    0.2700   -1.0220    0.1220 C   0  0  0  0  0  0  0  0  0  0  0  0
   -1.9050    0.6560   -0.0930 C   0  0  0  0  0  0  0  0  0  0  0  0
    2.8820    0.1240   -0.1880 N   0  0  0  0  0  0  0  0  0  0  0  0
   -2.0840   -0.7020    0.0370 C   0  0  0  0  0  0  0  0  0  0  0  0
    1.8510    0.8750    0.0250 C   0  0  0  0  0  0  0  0  0  0  0  0
   -1.0190   -1.5700    0.1520 C   0  0  0  0  0  0  0  0  0  0  0  0
   -1.1830   -2.6360    0.2600 H   0  0  0  0  0  0  0  0  0  0  0  0
   -3.0850    1.3270   -0.1910 O   0  0  0  0  0  0  0  0  0  0  0  0
   -3.3980   -1.0530    0.0400 O   0  0  0  0  0  0  0  0  0  0  0  0
   -4.0270    0.2370   -0.1030 C   0  0  0  0  0  0  0  0  0  0  0  0
   -4.6780    0.4070    0.7620 H   0  0  0  0  0  0  0  0  0  0  0  0
   -4.6410    0.2300   -1.0100 H   0  0  0  0  0  0  0  0  0  0  0  0
    2.6390   -1.2820   -0.5320 C   0  0  0  0  0  0  0  0  0  0  0  0
    2.4460   -1.3560   -1.6100 H   0  0  0  0  0  0  0  0  0  0  0  0
    3.5540   -1.8520   -0.3330 H   0  0  0  0  0  0  0  0  0  0  0  0
    1.4910   -1.8850    0.2690 C   0  0  0  0  0  0  0  0  0  0  0  0
    1.2940   -2.9020   -0.0890 H   0  0  0  0  0  0  0  0  0  0  0  0
    1.7540   -1.9430    1.3310 H   0  0  0  0  0  0  0  0  0  0  0  0
    2.0960    2.3360    0.3160 C   0  0  0  0  0  0  0  0  0  0  0  0
    1.4670    2.6760    1.1430 H   0  0  0  0  0  0  0  0  0  0  0  0
    1.8840    2.9270   -0.5790 H   0  0  0  0  0  0  0  0  0  0  0  0
    3.1420    2.4940    0.5980 H   0  0  0  0  0  0  0  0  0  0  0  0
  1  2  2  0  0  0  0
  1  4  1  0  0  0  0
  1  8  1  0  0  0  0
  2  3  1  0  0  0  0
  2  5  1  0  0  0  0
  4  9  2  0  0  0  0
  4 19  1  0  0  0  0
  5  7  2  0  0  0  0
  5 11  1  0  0  0  0
  6  8  2  0  0  0  0
  6 16  1  0  0  0  0
  7  9  1  0  0  0  0
  7 12  1  0  0  0  0
  8 22  1  0  0  0  0
  9 10  1  0  0  0  0
 11 13  1  0  0  0  0
 12 13  1  0  0  0  0
 13 14  1  0  0  0  0
 13 15  1  0  0  0  0
 16 17  1  0  0  0  0
 16 18  1  0  0  0  0
 16 19  1  0  0  0  0
 19 20  1  0  0  0  0
 19 21  1  0  0  0  0
 22 23  1  0  0  0  0
 22 24  1  0  0  0  0
 22 25  1  0  0  0  0
M  END
>  <IDNUMBER>
AP-123/40765216

>  <NAME>
Dehydrosalsolidine, derivative of

>  <ADD_INFO>
http://www.specs.net/enter.php?specsid=AP-123/40765216

>  <H_ACCEPTORS>
1

>  <H_DONORS>
0

>  <ROTATABLE_BONDS>
0

>  <LOGP>
4.5599999

>  <LOGS>
-4.4699998

>  <TPSA>
30.82

>  <PRICE>
N05

>  <SALTDATA>
HCl

$$$$
AP-123/40765218
  MOE2011           3D

 46 49  0  0  1  0  0  0  0  0999 V2000
    0.7950    1.5870   -0.3630 N   0  3  3  0  0  0  0  0  0  0  0  0
    0.8460    1.2450   -1.3320 H   0  0  0  0  0  0  0  0  0  0  0  0
    0.3040    0.3940    0.4660 C   0  0  3  0  0  0  0  0  0  0  0  0
   -1.1990    0.2070    0.3470 C   0  0  0  0  0  0  0  0  0  0  0  0
    2.6430   -0.5520    0.0720 C   0  0  0  0  0  0  0  0  0  0  0  0
    1.1580   -0.8260    0.0650 C   0  0  0  0  0  0  0  0  0  0  0  0
    0.9560   -1.6490    0.7620 H   0  0  0  0  0  0  0  0  0  0  0  0
    0.8830   -1.1670   -0.9420 H   0  0  0  0  0  0  0  0  0  0  0  0
    3.1430    0.7650    0.0230 C   0  0  0  0  0  0  0  0  0  0  0  0
   -1.9900    1.3680    0.4240 C   0  0  0  0  0  0  0  0  0  0  0  0
   -1.8320   -1.0440    0.2460 C   0  0  0  0  0  0  0  0  0  0  0  0
   -1.2310   -1.9460    0.2160 H   0  0  0  0  0  0  0  0  0  0  0  0
    2.2130    1.9480    0.0160 C   0  0  0  0  0  0  0  0  0  0  0  0
    2.5480    2.6860   -0.7210 H   0  0  0  0  0  0  0  0  0  0  0  0
    2.1760    2.4050    1.0120 H   0  0  0  0  0  0  0  0  0  0  0  0
   -3.2300   -1.1450    0.2030 C   0  0  0  0  0  0  0  0  0  0  0  0
    3.5350   -1.6350    0.0750 C   0  0  0  0  0  0  0  0  0  0  0  0
    3.1680   -2.6590    0.0790 H   0  0  0  0  0  0  0  0  0  0  0  0
    4.5310    0.9780    0.0320 C   0  0  0  0  0  0  0  0  0  0  0  0
    4.9450    1.9840    0.0290 H   0  0  0  0  0  0  0  0  0  0  0  0
   -3.3820    1.2770    0.3920 C   0  0  0  0  0  0  0  0  0  0  0  0
   -4.0020    2.1670    0.4700 H   0  0  0  0  0  0  0  0  0  0  0  0
    4.9040   -1.4050    0.0560 C   0  0  0  0  0  0  0  0  0  0  0  0
    5.3990   -0.1080    0.0640 C   0  0  0  0  0  0  0  0  0  0  0  0
   -3.9940    0.0300    0.2550 C   0  0  0  0  0  0  0  0  0  0  0  0
   -0.1300    2.7920   -0.4110 C   0  0  0  0  0  0  0  0  0  0  0  0
    0.4620    3.6950   -0.2270 H   0  0  0  0  0  0  0  0  0  0  0  0
   -0.5030    2.8350   -1.4410 H   0  0  0  0  0  0  0  0  0  0  0  0
   -1.2910    2.6920    0.5740 C   0  0  0  0  0  0  0  0  0  0  0  0
   -0.9330    2.7940    1.6050 H   0  0  0  0  0  0  0  0  0  0  0  0
   -1.9850    3.5200    0.3880 H   0  0  0  0  0  0  0  0  0  0  0  0
    5.7430   -2.4800    0.0070 O   0  0  0  0  0  0  0  0  0  0  0  0
    6.4750   -2.2430   -0.5910 H   0  0  0  0  0  0  0  0  0  0  0  0
    6.7410    0.1330    0.1310 O   0  0  0  0  0  0  0  0  0  0  0  0
    7.1280   -0.5720    0.6820 H   0  0  0  0  0  0  0  0  0  0  0  0
   -3.9260   -2.3230    0.1340 O   0  0  0  0  0  0  0  0  0  0  0  0
   -5.3670    0.0160    0.2610 O   0  0  0  0  0  0  0  0  0  0  0  0
   -5.8800   -0.2670   -1.0410 C   0  0  0  0  0  0  0  0  0  0  0  0
   -6.9440   -0.0100   -1.0420 H   0  0  0  0  0  0  0  0  0  0  0  0
   -5.7930   -1.3310   -1.2800 H   0  0  0  0  0  0  0  0  0  0  0  0
   -5.3880    0.3380   -1.8120 H   0  0  0  0  0  0  0  0  0  0  0  0
   -3.1810   -3.5350    0.1490 C   0  0  0  0  0  0  0  0  0  0  0  0
   -3.8930   -4.3650    0.1090 H   0  0  0  0  0  0  0  0  0  0  0  0
   -2.6060   -3.6340    1.0760 H   0  0  0  0  0  0  0  0  0  0  0  0
   -2.5340   -3.6100   -0.7310 H   0  0  0  0  0  0  0  0  0  0  0  0
    0.5160    0.6500    1.5150 H   0  0  0  0  0  0  0  0  0  0  0  0
  1  2  1  0  0  0  0
  1  3  1  0  0  0  0
  1 13  1  0  0  0  0
  1 26  1  0  0  0  0
  3  4  1  0  0  0  0
  3  6  1  0  0  0  0
  3 46  1  0  0  0  0
  4 10  2  0  0  0  0
  4 11  1  0  0  0  0
  5  6  1  0  0  0  0
  5  9  2  0  0  0  0
  5 17  1  0  0  0  0
  6  7  1  0  0  0  0
  6  8  1  0  0  0  0
  9 13  1  0  0  0  0
  9 19  1  0  0  0  0
 10 21  1  0  0  0  0
 10 29  1  0  0  0  0
 11 12  1  0  0  0  0
 11 16  2  0  0  0  0
 13 14  1  0  0  0  0
 13 15  1  0  0  0  0
 16 25  1  0  0  0  0
 16 36  1  0  0  0  0
 17 18  1  0  0  0  0
 17 23  2  0  0  0  0
 19 20  1  0  0  0  0
 19 24  2  0  0  0  0
 21 22  1  0  0  0  0
 21 25  2  0  0  0  0
 23 24  1  0  0  0  0
 23 32  1  0  0  0  0
 24 34  1  0  0  0  0
 25 37  1  0  0  0  0
 26 27  1  0  0  0  0
 26 28  1  0  0  0  0
 26 29  1  0  0  0  0
 29 30  1  0  0  0  0
 29 31  1  0  0  0  0
 32 33  1  0  0  0  0
 34 35  1  0  0  0  0
 36 42  1  0  0  0  0
 37 38  1  0  0  0  0
 38 39  1  0  0  0  0
 38 40  1  0  0  0  0
 38 41  1  0  0  0  0
 42 43  1  0  0  0  0
 42 44  1  0  0  0  0
 42 45  1  0  0  0  0
M  CHG  1   1   1
M  END
>  <IDNUMBER>
AP-123/40765218

>  <NAME>
Spinosine

>  <ADD_INFO>
http://www.specs.net/enter.php?specsid=AP-123/40765218

>  <H_ACCEPTORS>
1

>  <H_DONORS>
2

>  <ROTATABLE_BONDS>
2

>  <LOGP>
2.71

>  <LOGS>
-2.3199999

>  <TPSA>
62.16

>  <PRICE>
N05

$$$$
AP-123/40765222
  MOE2011           3D

 30 31  0  0  1  0  0  0  0  0999 V2000
   -0.1870   -0.8860   -0.0300 C   0  0  0  0  0  0  0  0  0  0  0  0
    0.1450    0.4830   -0.0090 C   0  0  0  0  0  0  0  0  0  0  0  0
   -2.6090   -0.2690    0.3080 N   0  3  3  0  0  0  0  0  0  0  0  0
   -2.4770   -0.1050    1.3150 H   0  0  0  0  0  0  0  0  0  0  0  0
    0.8380   -1.8400   -0.0530 C   0  0  0  0  0  0  0  0  0  0  0  0
    0.6190   -2.9040   -0.0890 H   0  0  0  0  0  0  0  0  0  0  0  0
    2.1640   -1.4250   -0.0320 C   0  0  0  0  0  0  0  0  0  0  0  0
    2.5130   -0.0730    0.0100 C   0  0  0  0  0  0  0  0  0  0  0  0
    1.4960    0.8810    0.0250 C   0  0  0  0  0  0  0  0  0  0  0  0
    1.7240    1.9420    0.0620 H   0  0  0  0  0  0  0  0  0  0  0  0
   -1.6200   -1.3430   -0.0850 C   0  0  0  0  0  0  0  0  0  0  0  0
   -1.7830   -2.1760    0.6070 H   0  0  0  0  0  0  0  0  0  0  0  0
   -1.8680   -1.6560   -1.1060 H   0  0  0  0  0  0  0  0  0  0  0  0
   -0.9350    1.5380    0.0420 C   0  0  0  0  0  0  0  0  0  0  0  0
   -0.6560    2.3880   -0.5910 H   0  0  0  0  0  0  0  0  0  0  0  0
   -1.0050    1.9020    1.0750 H   0  0  0  0  0  0  0  0  0  0  0  0
   -2.3010    1.0230   -0.4080 C   0  0  0  0  0  0  0  0  0  0  0  0
   -2.3300    0.8180   -1.4850 H   0  0  0  0  0  0  0  0  0  0  0  0
   -3.0850    1.7440   -0.1540 H   0  0  0  0  0  0  0  0  0  0  0  0
    3.1430   -2.3810   -0.0520 O   0  0  0  0  0  0  0  0  0  0  0  0
    3.9840   -1.8810   -0.0330 H   0  0  0  0  0  0  0  0  0  0  0  0
    3.8610    0.1700    0.0320 O   0  0  0  0  0  0  0  0  0  0  0  0
   -4.0300   -0.7100    0.1160 C   0  0  0  0  0  0  0  0  0  0  0  0
   -4.2030   -0.8800   -0.9500 H   0  0  0  0  0  0  0  0  0  0  0  0
   -4.6820    0.0800    0.4970 H   0  0  0  0  0  0  0  0  0  0  0  0
   -4.1800   -1.6280    0.6900 H   0  0  0  0  0  0  0  0  0  0  0  0
    4.2650    1.5350    0.0680 C   0  0  0  0  0  0  0  0  0  0  0  0
    5.3590    1.5590    0.0820 H   0  0  0  0  0  0  0  0  0  0  0  0
    3.9080    2.0280    0.9780 H   0  0  0  0  0  0  0  0  0  0  0  0
    3.9310    2.0680   -0.8290 H   0  0  0  0  0  0  0  0  0  0  0  0
  1  2  1  0  0  0  0
  1  5  2  0  0  0  0
  1 11  1  0  0  0  0
  2  9  2  0  0  0  0
  2 14  1  0  0  0  0
  3  4  1  0  0  0  0
  3 11  1  0  0  0  0
  3 17  1  0  0  0  0
  3 23  1  0  0  0  0
  5  6  1  0  0  0  0
  5  7  1  0  0  0  0
  7  8  2  0  0  0  0
  7 20  1  0  0  0  0
  8  9  1  0  0  0  0
  8 22  1  0  0  0  0
  9 10  1  0  0  0  0
 11 12  1  0  0  0  0
 11 13  1  0  0  0  0
 14 15  1  0  0  0  0
 14 16  1  0  0  0  0
 14 17  1  0  0  0  0
 17 18  1  0  0  0  0
 17 19  1  0  0  0  0
 20 21  1  0  0  0  0
 22 27  1  0  0  0  0
 23 24  1  0  0  0  0
 23 25  1  0  0  0  0
 23 26  1  0  0  0  0
 27 28  1  0  0  0  0
 27 29  1  0  0  0  0
 27 30  1  0  0  0  0
M  CHG  1   3   1
M  END
>  <IDNUMBER>
AP-123/40765222

>  <NAME>
Corypalline

>  <ADD_INFO>
http://www.specs.net/enter.php?specsid=AP-123/40765222

>  <H_ACCEPTORS>
1

>  <H_DONORS>
1

>  <ROTATABLE_BONDS>
1

>  <LOGP>
1.3

>  <LOGS>
-0.72000003

>  <TPSA>
32.700001

>  <PRICE>
N05

$$$$
AP-123/40765225
  MOE2011           3D

 44 46  0  0  0  0  0  0  0  0999 V2000
   -1.3570   -1.7260    0.0390 N   0  3  0  0  0  0  0  0  0  0  0  0
    0.5560   -0.2110    0.0600 C   0  0  0  0  0  0  0  0  0  0  0  0
   -0.9180   -0.4990    0.0940 C   0  0  0  0  0  0  0  0  0  0  0  0
    1.4370   -1.2670    0.3320 C   0  0  0  0  0  0  0  0  0  0  0  0
    1.0620    1.0660   -0.2130 C   0  0  0  0  0  0  0  0  0  0  0  0
    0.3810    1.8790   -0.4370 H   0  0  0  0  0  0  0  0  0  0  0  0
    2.4440    1.2970   -0.2030 C   0  0  0  0  0  0  0  0  0  0  0  0
    2.8180   -1.0360    0.3570 C   0  0  0  0  0  0  0  0  0  0  0  0
    3.4780   -1.8660    0.5910 H   0  0  0  0  0  0  0  0  0  0  0  0
    3.3290    0.2390    0.0860 C   0  0  0  0  0  0  0  0  0  0  0  0
   -0.3900   -2.8680   -0.1540 C   0  0  0  0  0  0  0  0  0  0  0  0
   -0.8710   -3.7970    0.1680 H   0  0  0  0  0  0  0  0  0  0  0  0
   -0.1880   -2.9280   -1.2300 H   0  0  0  0  0  0  0  0  0  0  0  0
   -1.8410    0.6530    0.2140 C   0  0  0  0  0  0  0  0  0  0  0  0
    0.8760   -2.6240    0.6520 C   0  0  0  0  0  0  0  0  0  0  0  0
    0.6670   -2.6720    1.7280 H   0  0  0  0  0  0  0  0  0  0  0  0
    1.6050   -3.4090    0.4190 H   0  0  0  0  0  0  0  0  0  0  0  0
   -2.8080   -2.1240    0.1470 C   0  0  0  0  0  0  0  0  0  0  0  0
   -2.8640   -2.9810    0.8260 H   0  0  0  0  0  0  0  0  0  0  0  0
   -3.3840   -1.3140    0.6010 H   0  0  0  0  0  0  0  0  0  0  0  0
    3.0270    2.5140   -0.4610 O   0  0  0  0  0  0  0  0  0  0  0  0
    4.6650    0.5540    0.0810 O   0  0  0  0  0  0  0  0  0  0  0  0
   -2.4730    1.1580   -0.9260 C   0  0  0  0  0  0  0  0  0  0  0  0
   -2.3060    0.7200   -1.9070 H   0  0  0  0  0  0  0  0  0  0  0  0
   -2.0390    1.2380    1.4690 C   0  0  0  0  0  0  0  0  0  0  0  0
   -1.5390    0.8560    2.3560 H   0  0  0  0  0  0  0  0  0  0  0  0
    2.1740    3.6240   -0.7090 C   0  0  0  0  0  0  0  0  0  0  0  0
    2.8070    4.5020   -0.8680 H   0  0  0  0  0  0  0  0  0  0  0  0
    1.5320    3.8290    0.1540 H   0  0  0  0  0  0  0  0  0  0  0  0
    1.5830    3.4710   -1.6170 H   0  0  0  0  0  0  0  0  0  0  0  0
    5.5940   -0.4820    0.3670 C   0  0  0  0  0  0  0  0  0  0  0  0
    6.6000   -0.0530    0.3150 H   0  0  0  0  0  0  0  0  0  0  0  0
    5.5350   -1.2820   -0.3790 H   0  0  0  0  0  0  0  0  0  0  0  0
    5.4500   -0.8720    1.3800 H   0  0  0  0  0  0  0  0  0  0  0  0
   -3.3490   -2.4760   -1.2260 C   0  0  0  0  0  0  0  0  0  0  0  0
   -2.8150   -3.3270   -1.6640 H   0  0  0  0  0  0  0  0  0  0  0  0
   -3.2640   -1.6370   -1.9240 H   0  0  0  0  0  0  0  0  0  0  0  0
   -4.4060   -2.7480   -1.1530 H   0  0  0  0  0  0  0  0  0  0  0  0
   -3.3220    2.2560   -0.8020 C   0  0  0  0  0  0  0  0  0  0  0  0
   -3.8180    2.6630   -1.6800 H   0  0  0  0  0  0  0  0  0  0  0  0
   -2.8910    2.3350    1.5810 C   0  0  0  0  0  0  0  0  0  0  0  0
   -3.0550    2.8020    2.5490 H   0  0  0  0  0  0  0  0  0  0  0  0
   -3.5310    2.8420    0.4480 C   0  0  0  0  0  0  0  0  0  0  0  0
   -4.1920    3.7010    0.5390 H   0  0  0  0  0  0  0  0  0  0  0  0
  1  3  2  0  0  0  0
  1 11  1  0  0  0  0
  1 18  1  0  0  0  0
  2  3  1  0  0  0  0
  2  4  2  0  0  0  0
  2  5  1  0  0  0  0
  3 14  1  0  0  0  0
  4  8  1  0  0  0  0
  4 15  1  0  0  0  0
  5  6  1  0  0  0  0
  5  7  2  0  0  0  0
  7 10  1  0  0  0  0
  7 21  1  0  0  0  0
  8  9  1  0  0  0  0
  8 10  2  0  0  0  0
 10 22  1  0  0  0  0
 11 12  1  0  0  0  0
 11 13  1  0  0  0  0
 11 15  1  0  0  0  0
 14 23  2  0  0  0  0
 14 25  1  0  0  0  0
 15 16  1  0  0  0  0
 15 17  1  0  0  0  0
 18 19  1  0  0  0  0
 18 20  1  0  0  0  0
 18 35  1  0  0  0  0
 21 27  1  0  0  0  0
 22 31  1  0  0  0  0
 23 24  1  0  0  0  0
 23 39  1  0  0  0  0
 25 26  1  0  0  0  0
 25 41  2  0  0  0  0
 27 28  1  0  0  0  0
 27 29  1  0  0  0  0
 27 30  1  0  0  0  0
 31 32  1  0  0  0  0
 31 33  1  0  0  0  0
 31 34  1  0  0  0  0
 35 36  1  0  0  0  0
 35 37  1  0  0  0  0
 35 38  1  0  0  0  0
 39 40  1  0  0  0  0
 39 43  2  0  0  0  0
 41 42  1  0  0  0  0
 41 43  1  0  0  0  0
 43 44  1  0  0  0  0
M  CHG  1   1   1
M  END
>  <IDNUMBER>
AP-123/40765225

>  <NAME>
Dehydrosalsolidine, derivative of

>  <ADD_INFO>
http://www.specs.net/enter.php?specsid=AP-123/40765225

>  <H_ACCEPTORS>
0

>  <H_DONORS>
0

>  <ROTATABLE_BONDS>
4

>  <LOGP>
1.89

>  <LOGS>
-2.99

>  <TPSA>
21.469999

>  <PRICE>
N05

>  <SALTDATA>
I-

$$$$
AP-123/42300632
  MOE2011           3D

 51 52  0  0  0  0  0  0  0  0999 V2000
    5.2250   -0.6010    0.0130 C   0  0  0  0  0  0  0  0  0  0  0  0
   -5.3660   -0.0200   -0.0650 C   0  0  0  0  0  0  0  0  0  0  0  0
    4.7760   -1.9090   -0.1900 C   0  0  0  0  0  0  0  0  0  0  0  0
   -5.7680   -1.3090   -0.4320 C   0  0  0  0  0  0  0  0  0  0  0  0
   -0.4890    1.2870   -0.0830 C   0  0  0  0  0  0  0  0  0  0  0  0
   -0.6600    1.8150   -1.0270 H   0  0  0  0  0  0  0  0  0  0  0  0
   -1.2370    1.6760    0.6130 H   0  0  0  0  0  0  0  0  0  0  0  0
    4.4400    0.4600   -0.4430 C   0  0  0  0  0  0  0  0  0  0  0  0
    4.7620    1.4890   -0.3130 H   0  0  0  0  0  0  0  0  0  0  0  0
   -4.1740    0.1400    0.6420 C   0  0  0  0  0  0  0  0  0  0  0  0
   -3.8360    1.1240    0.9510 H   0  0  0  0  0  0  0  0  0  0  0  0
   -0.6960   -0.1870   -0.3120 C   0  0  0  0  0  0  0  0  0  0  0  0
    0.8840    1.6170    0.4390 C   0  0  0  0  0  0  0  0  0  0  0  0
   -0.6900   -0.6420   -1.4590 O   0  0  0  0  0  0  0  0  0  0  0  0
    1.2000    1.3420    1.5980 O   0  0  0  0  0  0  0  0  0  0  0  0
   -5.0090   -2.4260   -0.1140 C   0  0  0  0  0  0  0  0  0  0  0  0
   -5.3400   -3.4160   -0.4110 H   0  0  0  0  0  0  0  0  0  0  0  0
    3.5730   -2.1740   -0.8300 C   0  0  0  0  0  0  0  0  0  0  0  0
    3.2480   -3.1990   -0.9800 H   0  0  0  0  0  0  0  0  0  0  0  0
    3.2140    0.2150   -1.0900 C   0  0  0  0  0  0  0  0  0  0  0  0
   -3.3870   -0.9790    0.9720 C   0  0  0  0  0  0  0  0  0  0  0  0
   -3.8170   -2.2600    0.5890 C   0  0  0  0  0  0  0  0  0  0  0  0
   -3.2220   -3.1360    0.8370 H   0  0  0  0  0  0  0  0  0  0  0  0
    2.7940   -1.1100   -1.2830 C   0  0  0  0  0  0  0  0  0  0  0  0
    1.8570   -1.3250   -1.7940 H   0  0  0  0  0  0  0  0  0  0  0  0
    6.4330   -0.5040    0.6550 O   0  0  0  0  0  0  0  0  0  0  0  0
   -0.8520   -1.1050    0.8860 C   0  0  0  0  0  0  0  0  0  0  0  0
   -0.8810   -2.1370    0.5150 H   0  0  0  0  0  0  0  0  0  0  0  0
    0.0500   -1.0260    1.5010 H   0  0  0  0  0  0  0  0  0  0  0  0
    1.8610    2.2930   -0.5020 C   0  0  0  0  0  0  0  0  0  0  0  0
    1.3520    3.1560   -0.9480 H   0  0  0  0  0  0  0  0  0  0  0  0
    2.6860    2.6980    0.0950 H   0  0  0  0  0  0  0  0  0  0  0  0
   -6.2230    0.9780   -0.4550 O   0  0  0  0  0  0  0  0  0  0  0  0
    5.5360   -2.9630    0.2420 O   0  0  0  0  0  0  0  0  0  0  0  0
    6.3250   -2.5490    0.6450 H   0  0  0  0  0  0  0  0  0  0  0  0
   -6.9380   -1.4870   -1.1220 O   0  0  0  0  0  0  0  0  0  0  0  0
   -7.3010   -0.5850   -1.2260 H   0  0  0  0  0  0  0  0  0  0  0  0
    2.3720    1.3630   -1.5990 C   0  0  0  0  0  0  0  0  0  0  0  0
    2.9820    1.9410   -2.3050 H   0  0  0  0  0  0  0  0  0  0  0  0
    1.5280    0.9760   -2.1820 H   0  0  0  0  0  0  0  0  0  0  0  0
   -2.0900   -0.8080    1.7280 C   0  0  0  0  0  0  0  0  0  0  0  0
   -2.0320    0.2030    2.1490 H   0  0  0  0  0  0  0  0  0  0  0  0
   -2.1070   -1.4840    2.5930 H   0  0  0  0  0  0  0  0  0  0  0  0
    6.9140    0.8100    0.9100 C   0  0  0  0  0  0  0  0  0  0  0  0
    7.8680    0.7200    1.4380 H   0  0  0  0  0  0  0  0  0  0  0  0
    6.2260    1.3640    1.5570 H   0  0  0  0  0  0  0  0  0  0  0  0
    7.1000    1.3500   -0.0250 H   0  0  0  0  0  0  0  0  0  0  0  0
   -5.8310    2.3110   -0.1460 C   0  0  0  0  0  0  0  0  0  0  0  0
   -6.5980    2.9840   -0.5400 H   0  0  0  0  0  0  0  0  0  0  0  0
   -4.8820    2.5660   -0.6290 H   0  0  0  0  0  0  0  0  0  0  0  0
   -5.7780    2.4640    0.9370 H   0  0  0  0  0  0  0  0  0  0  0  0
  1  3  2  0  0  0  0
  1  8  1  0  0  0  0
  1 26  1  0  0  0  0
  2  4  2  0  0  0  0
  2 10  1  0  0  0  0
  2 33  1  0  0  0  0
  3 18  1  0  0  0  0
  3 34  1  0  0  0  0
  4 16  1  0  0  0  0
  4 36  1  0  0  0  0
  5  6  1  0  0  0  0
  5  7  1  0  0  0  0
  5 12  1  0  0  0  0
  5 13  1  0  0  0  0
  8  9  1  0  0  0  0
  8 20  2  0  0  0  0
 10 11  1  0  0  0  0
 10 21  2  0  0  0  0
 12 14  2  0  0  0  0
 12 27  1  0  0  0  0
 13 15  2  0  0  0  0
 13 30  1  0  0  0  0
 16 17  1  0  0  0  0
 16 22  2  0  0  0  0
 18 19  1  0  0  0  0
 18 24  2  0  0  0  0
 20 24  1  0  0  0  0
 20 38  1  0  0  0  0
 21 22  1  0  0  0  0
 21 41  1  0  0  0  0
 22 23  1  0  0  0  0
 24 25  1  0  0  0  0
 26 44  1  0  0  0  0
 27 28  1  0  0  0  0
 27 29  1  0  0  0  0
 27 41  1  0  0  0  0
 30 31  1  0  0  0  0
 30 32  1  0  0  0  0
 30 38  1  0  0  0  0
 33 48  1  0  0  0  0
 34 35  1  0  0  0  0
 36 37  1  0  0  0  0
 38 39  1  0  0  0  0
 38 40  1  0  0  0  0
 41 42  1  0  0  0  0
 41 43  1  0  0  0  0
 44 45  1  0  0  0  0
 44 46  1  0  0  0  0
 44 47  1  0  0  0  0
 48 49  1  0  0  0  0
 48 50  1  0  0  0  0
 48 51  1  0  0  0  0
M  END
>  <IDNUMBER>
AP-123/42300632

>  <NAME>
1,7-bis(4-hydroxy-3-methoxyphenyl)-3,5-heptanedione

>  <ADD_INFO>
http://www.specs.net/enter.php?specsid=AP-123/42300632

>  <H_ACCEPTORS>
2

>  <H_DONORS>
2

>  <ROTATABLE_BONDS>
10

>  <LOGP>
3.1400001

>  <LOGS>
-4.5999999

>  <TPSA>
93.059998

>  <PRICE>
N07

$$$$
AP-163/40806740
  MOE2011           3D

 46 50  0  0  1  0  0  0  0  0999 V2000
    0.9310    0.1950   -0.6510 C   0  0  0  0  0  0  0  0  0  0  0  0
   -0.5310    0.2470   -0.8710 C   0  0  1  0  0  0  0  0  0  0  0  0
    1.5940   -0.9040   -0.0590 C   0  0  0  0  0  0  0  0  0  0  0  0
    1.8250    1.1900   -0.9000 N   0  0  0  0  0  0  0  0  0  0  0  0
    1.6160    2.0890   -1.3130 H   0  0  0  0  0  0  0  0  0  0  0  0
   -1.3870   -1.6460    0.0460 N   0  3  2  0  0  0  0  0  0  0  0  0
   -0.8520   -1.8760   -0.7920 H   0  0  0  0  0  0  0  0  0  0  0  0
   -1.1370   -0.2080    0.4560 C   0  0  3  0  0  0  0  0  0  0  0  0
    2.9720   -0.5050    0.0230 C   0  0  0  0  0  0  0  0  0  0  0  0
    3.0800    0.7890   -0.4990 C   0  0  0  0  0  0  0  0  0  0  0  0
   -2.4380    0.4570    0.9720 C   0  0  2  0  0  0  0  0  0  0  0  0
    1.0300   -2.3080    0.3720 C   0  0  0  0  0  0  0  0  0  0  0  0
    1.6630   -2.6940    1.1810 H   0  0  0  0  0  0  0  0  0  0  0  0
    1.2070   -2.9620   -0.4930 H   0  0  0  0  0  0  0  0  0  0  0  0
   -2.6750   -1.7190   -0.7340 C   0  0  0  0  0  0  0  0  0  0  0  0
   -2.5400   -2.4420   -1.5460 H   0  0  0  0  0  0  0  0  0  0  0  0
   -3.4650   -2.0560   -0.0560 H   0  0  0  0  0  0  0  0  0  0  0  0
   -1.6530    0.5970   -1.8200 C   0  0  0  0  0  0  0  0  0  0  0  0
   -1.8550    1.6730   -1.8280 H   0  0  0  0  0  0  0  0  0  0  0  0
   -1.4330    0.3210   -2.8620 H   0  0  0  0  0  0  0  0  0  0  0  0
   -2.9450   -0.2430   -1.3260 C   0  0  2  0  0  0  0  0  0  0  0  0
   -0.4900   -2.5460    0.8230 C   0  0  0  0  0  0  0  0  0  0  0  0
   -0.6310   -2.3310    1.8880 H   0  0  0  0  0  0  0  0  0  0  0  0
   -0.7880   -3.5800    0.6220 H   0  0  0  0  0  0  0  0  0  0  0  0
   -3.4840    0.5610   -0.1400 C   0  0  0  0  0  0  0  0  0  0  0  0
   -4.4400    0.1460    0.2040 H   0  0  0  0  0  0  0  0  0  0  0  0
   -3.6910    1.5960   -0.4330 H   0  0  0  0  0  0  0  0  0  0  0  0
   -2.2090    1.7870    1.7130 C   0  0  0  0  0  0  0  0  0  0  0  0
   -3.1760    2.1620    2.0720 H   0  0  0  0  0  0  0  0  0  0  0  0
   -1.6090    1.5890    2.6100 H   0  0  0  0  0  0  0  0  0  0  0  0
    4.1440   -1.1360    0.4930 C   0  0  0  0  0  0  0  0  0  0  0  0
    4.1070   -2.1420    0.9020 H   0  0  0  0  0  0  0  0  0  0  0  0
    4.2980    1.4780   -0.5640 C   0  0  0  0  0  0  0  0  0  0  0  0
    4.3610    2.4820   -0.9720 H   0  0  0  0  0  0  0  0  0  0  0  0
   -1.5250    2.8930    0.9240 C   0  0  0  0  0  0  0  0  0  0  0  0
   -2.0890    3.1640    0.0280 H   0  0  0  0  0  0  0  0  0  0  0  0
   -0.5110    2.6100    0.6320 H   0  0  0  0  0  0  0  0  0  0  0  0
   -1.4450    3.7920    1.5440 H   0  0  0  0  0  0  0  0  0  0  0  0
    5.3670   -0.4590    0.4340 C   0  0  0  0  0  0  0  0  0  0  0  0
    6.2700   -0.9450    0.7980 H   0  0  0  0  0  0  0  0  0  0  0  0
    5.4400    0.8290   -0.0870 C   0  0  0  0  0  0  0  0  0  0  0  0
    6.3990    1.3400   -0.1260 H   0  0  0  0  0  0  0  0  0  0  0  0
   -0.3160   -0.5830   -1.5770 H   0  0  0  0  0  0  0  0  0  0  0  0
   -0.4370   -0.1970    1.3020 H   0  0  0  0  0  0  0  0  0  0  0  0
   -2.8540   -0.2220    1.7330 H   0  0  0  0  0  0  0  0  0  0  0  0
   -3.6950   -0.2830   -2.1220 H   0  0  0  0  0  0  0  0  0  0  0  0
  1  2  1  0  0  0  0
  1  3  2  0  0  0  0
  1  4  1  0  0  0  0
  2  8  1  0  0  0  0
  2 18  1  0  0  0  0
  2 43  1  0  0  0  0
  3  9  1  0  0  0  0
  3 12  1  0  0  0  0
  4  5  1  0  0  0  0
  4 10  1  0  0  0  0
  6  7  1  0  0  0  0
  6  8  1  0  0  0  0
  6 15  1  0  0  0  0
  6 22  1  0  0  0  0
  8 11  1  0  0  0  0
  8 44  1  0  0  0  0
  9 10  2  0  0  0  0
  9 31  1  0  0  0  0
 10 33  1  0  0  0  0
 11 25  1  0  0  0  0
 11 28  1  0  0  0  0
 11 45  1  0  0  0  0
 12 13  1  0  0  0  0
 12 14  1  0  0  0  0
 12 22  1  0  0  0  0
 15 16  1  0  0  0  0
 15 17  1  0  0  0  0
 15 21  1  0  0  0  0
 18 19  1  0  0  0  0
 18 20  1  0  0  0  0
 18 21  1  0  0  0  0
 21 25  1  0  0  0  0
 21 46  1  0  0  0  0
 22 23  1  0  0  0  0
 22 24  1  0  0  0  0
 25 26  1  0  0  0  0
 25 27  1  0  0  0  0
 28 29  1  0  0  0  0
 28 30  1  0  0  0  0
 28 35  1  0  0  0  0
 31 32  1  0  0  0  0
 31 39  2  0  0  0  0
 33 34  1  0  0  0  0
 33 41  2  0  0  0  0
 35 36  1  0  0  0  0
 35 37  1  0  0  0  0
 35 38  1  0  0  0  0
 39 40  1  0  0  0  0
 39 41  1  0  0  0  0
 41 42  1  0  0  0  0
M  CHG  1   6   1
M  END
>  <IDNUMBER>
AP-163/40806740

>  <NAME>
17-ethyl-3,13-diazapentacyclo[13.3.1.0~2,10~.0~4,9~.0~13,18~]nonadeca-2(10),4,6,8-tetraene

>  <ADD_INFO>
http://www.specs.net/enter.php?specsid=AP-163/40806740

>  <H_ACCEPTORS>
2

>  <H_DONORS>
1

>  <ROTATABLE_BONDS>
1

>  <LOGP>
3.77

>  <LOGS>
-3.45

>  <TPSA>
19.030001

>  <PRICE>
N07

>  <STEREOCHEM>
(-)-isomer

$$$$
AP-163/40806830
  MOE2011           3D

 22 22  0  0  0  0  0  0  0  0999 V2000
    3.6810   -0.1290   -0.1290 C   0  0  0  0  0  0  0  0  0  0  0  0
    2.1790    0.0470   -0.1580 C   0  0  0  0  0  0  0  0  0  0  0  0
    1.3280   -1.0510   -0.3470 C   0  0  0  0  0  0  0  0  0  0  0  0
    1.7510   -2.0450   -0.4820 H   0  0  0  0  0  0  0  0  0  0  0  0
   -0.0610   -0.8850   -0.3550 C   0  0  0  0  0  0  0  0  0  0  0  0
   -0.6370    0.3880   -0.2190 C   0  0  0  0  0  0  0  0  0  0  0  0
    4.1290   -1.3100   -0.2640 O   0  0  0  0  0  0  0  0  0  0  0  0
    1.5990    1.3130    0.0050 C   0  0  0  0  0  0  0  0  0  0  0  0
    2.2400    2.1810    0.1530 H   0  0  0  0  0  0  0  0  0  0  0  0
    0.2090    1.4840   -0.0290 C   0  0  0  0  0  0  0  0  0  0  0  0
   -0.1740    2.4920    0.0900 H   0  0  0  0  0  0  0  0  0  0  0  0
    4.3820    0.9200    0.0290 O   0  5  0  0  0  0  0  0  0  0  0  0
   -0.8060   -2.0210   -0.5660 O   0  0  0  0  0  0  0  0  0  0  0  0
   -2.0030    0.4600   -0.2970 O   0  0  0  0  0  0  0  0  0  0  0  0
   -1.5640   -2.3650    0.5940 C   0  0  0  0  0  0  0  0  0  0  0  0
   -1.7610   -3.4410    0.5540 H   0  0  0  0  0  0  0  0  0  0  0  0
   -2.5290   -1.8500    0.5900 H   0  0  0  0  0  0  0  0  0  0  0  0
   -1.0230   -2.1580    1.5250 H   0  0  0  0  0  0  0  0  0  0  0  0
   -2.5970    1.7470   -0.1920 C   0  0  0  0  0  0  0  0  0  0  0  0
   -3.6800    1.6240   -0.2870 H   0  0  0  0  0  0  0  0  0  0  0  0
   -2.2640    2.4040   -1.0030 H   0  0  0  0  0  0  0  0  0  0  0  0
   -2.3990    2.1940    0.7880 H   0  0  0  0  0  0  0  0  0  0  0  0
  1  2  1  0  0  0  0
  1  7  2  0  0  0  0
  1 12  1  0  0  0  0
  2  3  2  0  0  0  0
  2  8  1  0  0  0  0
  3  4  1  0  0  0  0
  3  5  1  0  0  0  0
  5  6  2  0  0  0  0
  5 13  1  0  0  0  0
  6 10  1  0  0  0  0
  6 14  1  0  0  0  0
  8  9  1  0  0  0  0
  8 10  2  0  0  0  0
 10 11  1  0  0  0  0
 13 15  1  0  0  0  0
 14 19  1  0  0  0  0
 15 16  1  0  0  0  0
 15 17  1  0  0  0  0
 15 18  1  0  0  0  0
 19 20  1  0  0  0  0
 19 21  1  0  0  0  0
 19 22  1  0  0  0  0
M  CHG  1  12  -1
M  END
>  <IDNUMBER>
AP-163/40806830

>  <NAME>
3,4-dimethoxybenzoic acid

>  <ADD_INFO>
http://www.specs.net/enter.php?specsid=AP-163/40806830

>  <H_ACCEPTORS>
2

>  <H_DONORS>
1

>  <ROTATABLE_BONDS>
3

>  <LOGP>
1.61

>  <LOGS>
-1.91

>  <TPSA>
55.759998

>  <PRICE>
N05

$$$$
AP-163/40806851
  MOE2011           3D

 78 81  0  0  1  0  0  0  0  0999 V2000
    0.0460   -0.9390   -0.3780 C   0  0  1  0  0  0  0  0  0  0  0  0
   -4.4510   -0.1990   -0.4100 C   0  0  1  0  0  0  0  0  0  0  0  0
   -4.4830    1.2530    0.0580 C   0  0  0  0  0  0  0  0  0  0  0  0
   -0.8330   -1.0300    0.8970 C   0  0  3  0  0  0  0  0  0  0  0  0
   -3.0020   -0.8400   -0.3560 C   0  0  3  0  0  0  0  0  0  0  0  0
   -2.1910   -0.3210    0.8690 C   0  0  3  0  0  0  0  0  0  0  0  0
    1.2130   -1.8710    0.0880 C   0  0  2  0  0  0  0  0  0  0  0  0
   -3.4420    1.8640    0.6480 C   0  0  0  0  0  0  0  0  0  0  0  0
   -3.5410    2.8940    0.9850 H   0  0  0  0  0  0  0  0  0  0  0  0
   -0.7950   -1.4750   -1.5490 C   0  0  0  0  0  0  0  0  0  0  0  0
   -0.2490   -1.3710   -2.4950 H   0  0  0  0  0  0  0  0  0  0  0  0
   -0.9810   -2.5490   -1.4200 H   0  0  0  0  0  0  0  0  0  0  0  0
   -2.1380    1.2070    0.9610 C   0  0  0  0  0  0  0  0  0  0  0  0
   -1.3910    1.6570    0.3130 H   0  0  0  0  0  0  0  0  0  0  0  0
   -1.8530    1.4820    1.9840 H   0  0  0  0  0  0  0  0  0  0  0  0
   -2.1600   -0.7550   -1.6610 C   0  0  0  0  0  0  0  0  0  0  0  0
   -2.6930   -1.2420   -2.4840 H   0  0  0  0  0  0  0  0  0  0  0  0
   -2.0270    0.2900   -1.9550 H   0  0  0  0  0  0  0  0  0  0  0  0
    0.1450   -0.7700    2.0330 C   0  0  0  0  0  0  0  0  0  0  0  0
    0.3790    0.2950    2.1370 H   0  0  0  0  0  0  0  0  0  0  0  0
   -0.2360   -1.1240    2.9960 H   0  0  0  0  0  0  0  0  0  0  0  0
    3.5970   -0.9780   -0.8510 C   0  0  0  0  0  0  0  0  0  0  0  0
    4.3570   -1.2180   -1.5980 H   0  0  0  0  0  0  0  0  0  0  0  0
    3.7910    0.1510   -0.1520 C   0  0  0  0  0  0  0  0  0  0  0  0
    3.0830    0.4700    0.6020 H   0  0  0  0  0  0  0  0  0  0  0  0
   -5.4060   -1.0020    0.5410 C   0  0  0  0  0  0  0  0  0  0  0  0
   -5.9980   -1.7150   -0.0490 H   0  0  0  0  0  0  0  0  0  0  0  0
   -4.8320   -1.6220    1.2410 H   0  0  0  0  0  0  0  0  0  0  0  0
    1.3960   -1.5580    1.5990 C   0  0  0  0  0  0  0  0  0  0  0  0
    1.4550   -2.5000    2.1580 H   0  0  0  0  0  0  0  0  0  0  0  0
    2.3010   -1.0020    1.8440 H   0  0  0  0  0  0  0  0  0  0  0  0
   -5.8370    1.9350    0.0010 C   0  0  0  0  0  0  0  0  0  0  0  0
   -6.0850    2.1880   -1.0370 H   0  0  0  0  0  0  0  0  0  0  0  0
   -5.7950    2.8870    0.5460 H   0  0  0  0  0  0  0  0  0  0  0  0
    2.4980   -2.0240   -0.7740 C   0  0  1  0  0  0  0  0  0  0  0  0
    5.0080    1.0460   -0.3130 C   0  0  2  0  0  0  0  0  0  0  0  0
    0.5630    0.4570   -0.7630 C   0  0  0  0  0  0  0  0  0  0  0  0
    1.3120    0.3800   -1.5560 H   0  0  0  0  0  0  0  0  0  0  0  0
    0.9990    0.9970    0.0790 H   0  0  0  0  0  0  0  0  0  0  0  0
   -0.2080    1.0990   -1.1910 H   0  0  0  0  0  0  0  0  0  0  0  0
   -6.3700   -0.1480    1.3880 C   0  0  0  0  0  0  0  0  0  0  0  0
   -5.8380    0.1990    2.2830 H   0  0  0  0  0  0  0  0  0  0  0  0
   -7.1870   -0.7920    1.7380 H   0  0  0  0  0  0  0  0  0  0  0  0
   -6.9340    1.0660    0.6440 C   0  0  2  0  0  0  0  0  0  0  0  0
   -5.0060   -0.3070   -1.8530 C   0  0  0  0  0  0  0  0  0  0  0  0
   -4.9350   -1.3370   -2.2240 H   0  0  0  0  0  0  0  0  0  0  0  0
   -4.4650    0.3490   -2.5440 H   0  0  0  0  0  0  0  0  0  0  0  0
   -6.0610   -0.0340   -1.9250 H   0  0  0  0  0  0  0  0  0  0  0  0
    5.7570    1.1730    1.0520 C   0  0  0  0  0  0  0  0  0  0  0  0
    5.0790    1.6230    1.7890 H   0  0  0  0  0  0  0  0  0  0  0  0
   -7.8460    0.6250   -0.3610 O   0  0  0  0  0  0  0  0  0  0  0  0
   -8.5380    0.1010    0.0780 H   0  0  0  0  0  0  0  0  0  0  0  0
    4.5860    2.4200   -0.8800 C   0  0  0  0  0  0  0  0  0  0  0  0
    3.8810    2.9130   -0.1980 H   0  0  0  0  0  0  0  0  0  0  0  0
    5.4590    3.0750   -0.9620 H   0  0  0  0  0  0  0  0  0  0  0  0
    3.1980   -3.3420   -0.3800 C   0  0  0  0  0  0  0  0  0  0  0  0
    4.0420   -3.5620   -1.0440 H   0  0  0  0  0  0  0  0  0  0  0  0
    2.5090   -4.1920   -0.4510 H   0  0  0  0  0  0  0  0  0  0  0  0
    3.5800   -3.3000    0.6460 H   0  0  0  0  0  0  0  0  0  0  0  0
    7.0010    2.0670    0.9620 C   0  0  0  0  0  0  0  0  0  0  0  0
    7.6670    1.7400    0.1570 H   0  0  0  0  0  0  0  0  0  0  0  0
    7.5680    2.0450    1.8990 H   0  0  0  0  0  0  0  0  0  0  0  0
    6.7310    3.1130    0.7860 H   0  0  0  0  0  0  0  0  0  0  0  0
    6.1880   -0.1990    1.5970 C   0  0  0  0  0  0  0  0  0  0  0  0
    6.8310   -0.7240    0.8820 H   0  0  0  0  0  0  0  0  0  0  0  0
    5.3250   -0.8380    1.8140 H   0  0  0  0  0  0  0  0  0  0  0  0
    6.7450   -0.0880    2.5330 H   0  0  0  0  0  0  0  0  0  0  0  0
    3.9680    2.3430   -2.2720 C   0  0  0  0  0  0  0  0  0  0  0  0
    3.0110    1.8160   -2.2640 H   0  0  0  0  0  0  0  0  0  0  0  0
    4.6390    1.8340   -2.9720 H   0  0  0  0  0  0  0  0  0  0  0  0
    3.7840    3.3520   -2.6550 H   0  0  0  0  0  0  0  0  0  0  0  0
   -1.1130   -2.0930    1.0130 H   0  0  0  0  0  0  0  0  0  0  0  0
   -3.1500   -1.9210   -0.2050 H   0  0  0  0  0  0  0  0  0  0  0  0
   -2.7290   -0.6550    1.7690 H   0  0  0  0  0  0  0  0  0  0  0  0
    0.7680   -2.8810    0.0730 H   0  0  0  0  0  0  0  0  0  0  0  0
    2.1500   -2.1560   -1.8080 H   0  0  0  0  0  0  0  0  0  0  0  0
    5.7040    0.5890   -1.0310 H   0  0  0  0  0  0  0  0  0  0  0  0
   -7.5160    1.6820    1.3390 H   0  0  0  0  0  0  0  0  0  0  0  0
  1  4  1  0  0  0  0
  1  7  1  0  0  0  0
  1 10  1  0  0  0  0
  1 37  1  0  0  0  0
  2  3  1  0  0  0  0
  2  5  1  0  0  0  0
  2 26  1  0  0  0  0
  2 45  1  0  0  0  0
  3  8  2  0  0  0  0
  3 32  1  0  0  0  0
  4  6  1  0  0  0  0
  4 19  1  0  0  0  0
  4 72  1  0  0  0  0
  5  6  1  0  0  0  0
  5 16  1  0  0  0  0
  5 73  1  0  0  0  0
  6 13  1  0  0  0  0
  6 74  1  0  0  0  0
  7 29  1  0  0  0  0
  7 35  1  0  0  0  0
  7 75  1  0  0  0  0
  8  9  1  0  0  0  0
  8 13  1  0  0  0  0
 10 11  1  0  0  0  0
 10 12  1  0  0  0  0
 10 16  1  0  0  0  0
 13 14  1  0  0  0  0
 13 15  1  0  0  0  0
 16 17  1  0  0  0  0
 16 18  1  0  0  0  0
 19 20  1  0  0  0  0
 19 21  1  0  0  0  0
 19 29  1  0  0  0  0
 22 23  1  0  0  0  0
 22 24  2  0  0  0  0
 22 35  1  0  0  0  0
 24 25  1  0  0  0  0
 24 36  1  0  0  0  0
 26 27  1  0  0  0  0
 26 28  1  0  0  0  0
 26 41  1  0  0  0  0
 29 30  1  0  0  0  0
 29 31  1  0  0  0  0
 32 33  1  0  0  0  0
 32 34  1  0  0  0  0
 32 44  1  0  0  0  0
 35 56  1  0  0  0  0
 35 76  1  0  0  0  0
 36 49  1  0  0  0  0
 36 53  1  0  0  0  0
 36 77  1  0  0  0  0
 37 38  1  0  0  0  0
 37 39  1  0  0  0  0
 37 40  1  0  0  0  0
 41 42  1  0  0  0  0
 41 43  1  0  0  0  0
 41 44  1  0  0  0  0
 44 51  1  0  0  0  0
 44 78  1  0  0  0  0
 45 46  1  0  0  0  0
 45 47  1  0  0  0  0
 45 48  1  0  0  0  0
 49 50  1  0  0  0  0
 49 60  1  0  0  0  0
 49 64  1  0  0  0  0
 51 52  1  0  0  0  0
 53 54  1  0  0  0  0
 53 55  1  0  0  0  0
 53 68  1  0  0  0  0
 56 57  1  0  0  0  0
 56 58  1  0  0  0  0
 56 59  1  0  0  0  0
 60 61  1  0  0  0  0
 60 62  1  0  0  0  0
 60 63  1  0  0  0  0
 64 65  1  0  0  0  0
 64 66  1  0  0  0  0
 64 67  1  0  0  0  0
 68 69  1  0  0  0  0
 68 70  1  0  0  0  0
 68 71  1  0  0  0  0
M  END
>  <IDNUMBER>
AP-163/40806851

>  <NAME>
Stigmasterol

>  <ADD_INFO>
http://www.specs.net/enter.php?specsid=AP-163/40806851

>  <H_ACCEPTORS>
1

>  <H_DONORS>
1

>  <ROTATABLE_BONDS>
5

>  <LOGP>
9.4300003

>  <LOGS>
-9.75

>  <TPSA>
20.23

>  <PRICE>
N07

>  <STEREOCHEM>
(3b,22E,24S)-isomer

$$$$
AP-163/40806852
  MOE2011           3D

 48 54  0  0  1  0  0  0  0  0999 V2000
   -1.1030   -0.7890   -1.0240 C   0  0  1  0  0  0  0  0  0  0  0  0
   -1.2510    1.7080   -0.5920 N   0  0  0  0  0  0  0  0  0  0  0  0
   -0.4010    0.6950   -1.1400 C   0  0  1  0  0  0  0  0  0  0  0  0
    0.9180    0.8630   -0.0950 C   0  0  1  0  0  0  0  0  0  0  0  0
   -0.8250    3.0390   -0.5870 C   0  0  0  0  0  0  0  0  0  0  0  0
    0.2920   -1.2900   -0.7020 C   0  0  1  0  0  0  0  0  0  0  0  0
   -2.3530    1.0880   -0.0140 C   0  0  0  0  0  0  0  0  0  0  0  0
   -2.2440   -0.3270   -0.1020 C   0  0  0  0  0  0  0  0  0  0  0  0
    1.8510   -0.3500   -0.2000 C   0  0  2  0  0  0  0  0  0  0  0  0
    0.7170   -2.6060   -0.1960 N   0  3  3  0  0  0  0  0  0  0  0  0
    1.3510   -3.0870   -0.8510 H   0  0  0  0  0  0  0  0  0  0  0  0
    1.5120    2.2400    0.0450 C   0  0  2  0  0  0  0  0  0  0  0  0
    2.6010   -0.6730    0.9690 C   0  0  0  0  0  0  0  0  0  0  0  0
    0.7100    3.1890   -0.8740 C   0  0  0  0  0  0  0  0  0  0  0  0
    0.9120    2.9930   -1.9330 H   0  0  0  0  0  0  0  0  0  0  0  0
    1.0080    4.2260   -0.6840 H   0  0  0  0  0  0  0  0  0  0  0  0
    1.5780   -0.6600   -1.6080 C   0  0  0  0  0  0  0  0  0  0  0  0
    2.0500   -1.4840   -2.1750 H   0  0  0  0  0  0  0  0  0  0  0  0
    1.4830    0.1810   -2.2940 H   0  0  0  0  0  0  0  0  0  0  0  0
    1.7840   -2.1850    1.2440 C   0  0  0  0  0  0  0  0  0  0  0  0
    1.0630   -2.1090    2.0590 H   0  0  0  0  0  0  0  0  0  0  0  0
    2.4750   -3.0270    1.2700 H   0  0  0  0  0  0  0  0  0  0  0  0
   -1.3110   -2.2480   -1.5020 C   0  0  0  0  0  0  0  0  0  0  0  0
   -0.8190   -2.4340   -2.4700 H   0  0  0  0  0  0  0  0  0  0  0  0
   -2.3630   -2.5160   -1.6420 H   0  0  0  0  0  0  0  0  0  0  0  0
   -0.6500   -3.2020   -0.3400 C   0  0  0  0  0  0  0  0  0  0  0  0
   -0.5490   -4.2370   -0.6760 H   0  0  0  0  0  0  0  0  0  0  0  0
   -1.1590   -3.1300    0.6240 H   0  0  0  0  0  0  0  0  0  0  0  0
    2.9240    2.1120   -0.1530 O   0  0  0  0  0  0  0  0  0  0  0  0
   -1.5240    4.0110   -0.3180 O   0  0  0  0  0  0  0  0  0  0  0  0
    3.4150    0.2100    1.5540 C   0  0  0  0  0  0  0  0  0  0  0  0
    3.8910   -0.0360    2.4990 H   0  0  0  0  0  0  0  0  0  0  0  0
    3.6640    1.6430    1.0220 C   0  0  0  0  0  0  0  0  0  0  0  0
    4.7240    1.7130    0.7550 H   0  0  0  0  0  0  0  0  0  0  0  0
    3.4890    2.3560    1.8350 H   0  0  0  0  0  0  0  0  0  0  0  0
   -3.3670    1.7190    0.6890 C   0  0  0  0  0  0  0  0  0  0  0  0
   -3.4180    2.8000    0.7650 H   0  0  0  0  0  0  0  0  0  0  0  0
   -3.2130   -1.0990    0.5360 C   0  0  0  0  0  0  0  0  0  0  0  0
   -3.2250   -2.1820    0.4860 H   0  0  0  0  0  0  0  0  0  0  0  0
   -4.3220    0.9270    1.3200 C   0  0  0  0  0  0  0  0  0  0  0  0
   -5.1310    1.3940    1.8770 H   0  0  0  0  0  0  0  0  0  0  0  0
   -4.2430   -0.4690    1.2470 C   0  0  0  0  0  0  0  0  0  0  0  0
   -5.0010   -1.0720    1.7420 H   0  0  0  0  0  0  0  0  0  0  0  0
    0.1000   -0.9870    0.3540 H   0  0  0  0  0  0  0  0  0  0  0  0
    2.3930   -1.2650   -0.5030 H   0  0  0  0  0  0  0  0  0  0  0  0
    0.4340    0.7700    0.9010 H   0  0  0  0  0  0  0  0  0  0  0  0
   -0.2220    0.9770   -2.1850 H   0  0  0  0  0  0  0  0  0  0  0  0
    1.3550    2.6120    1.0680 H   0  0  0  0  0  0  0  0  0  0  0  0
  1  3  1  0  0  0  0
  1  6  1  0  0  0  0
  1  8  1  0  0  0  0
  1 23  1  0  0  0  0
  2  3  1  0  0  0  0
  2  5  1  0  0  0  0
  2  7  1  0  0  0  0
  3  4  1  0  0  0  0
  3 47  1  0  0  0  0
  4  9  1  0  0  0  0
  4 12  1  0  0  0  0
  4 46  1  0  0  0  0
  5 14  1  0  0  0  0
  5 30  2  0  0  0  0
  6 10  1  0  0  0  0
  6 17  1  0  0  0  0
  6 44  1  0  0  0  0
  7  8  2  0  0  0  0
  7 36  1  0  0  0  0
  8 38  1  0  0  0  0
  9 13  1  0  0  0  0
  9 17  1  0  0  0  0
  9 45  1  0  0  0  0
 10 11  1  0  0  0  0
 10 20  1  0  0  0  0
 10 26  1  0  0  0  0
 12 14  1  0  0  0  0
 12 29  1  0  0  0  0
 12 48  1  0  0  0  0
 13 20  1  0  0  0  0
 13 31  2  0  0  0  0
 14 15  1  0  0  0  0
 14 16  1  0  0  0  0
 17 18  1  0  0  0  0
 17 19  1  0  0  0  0
 20 21  1  0  0  0  0
 20 22  1  0  0  0  0
 23 24  1  0  0  0  0
 23 25  1  0  0  0  0
 23 26  1  0  0  0  0
 26 27  1  0  0  0  0
 26 28  1  0  0  0  0
 29 33  1  0  0  0  0
 31 32  1  0  0  0  0
 31 33  1  0  0  0  0
 33 34  1  0  0  0  0
 33 35  1  0  0  0  0
 36 37  1  0  0  0  0
 36 40  2  0  0  0  0
 38 39  1  0  0  0  0
 38 42  2  0  0  0  0
 40 41  1  0  0  0  0
 40 42  1  0  0  0  0
 42 43  1  0  0  0  0
M  CHG  1  10   1
M  END
>  <IDNUMBER>
AP-163/40806852

>  <NAME>
Strychnine

>  <ADD_INFO>
http://www.specs.net/enter.php?specsid=AP-163/40806852

>  <H_ACCEPTORS>
4

>  <H_DONORS>
0

>  <ROTATABLE_BONDS>
0

>  <LOGP>
1.9299999

>  <LOGS>
-3.29

>  <TPSA>
32.779999

>  <PRICE>
N07

>  <SALTDATA>
0.125 H2SO4

$$$$
AP-163/40806934
  MOE2011           3D

 51 56  0  0  1  0  0  0  0  0999 V2000
    1.3780    0.9100   -0.0860 C   0  0  3  0  0  0  0  0  0  0  0  0
   -1.2060    0.7270   -1.3750 N   0  3  3  0  0  0  0  0  0  0  0  0
   -1.0670    1.0890   -2.3280 H   0  0  0  0  0  0  0  0  0  0  0  0
    1.0740   -0.2340   -1.1060 C   0  0  1  0  0  0  0  0  0  0  0  0
    2.0920   -1.2470   -0.8780 N   0  0  0  0  0  0  0  0  0  0  0  0
   -0.7920    1.0850    1.0140 C   0  0  3  0  0  0  0  0  0  0  0  0
   -0.7600    1.7940   -0.3660 C   0  0  3  0  0  0  0  0  0  0  0  0
   -0.4130   -0.6070   -1.1740 C   0  0  3  0  0  0  0  0  0  0  0  0
   -2.6890    0.4950   -1.2570 C   0  0  1  0  0  0  0  0  0  0  0  0
    0.6980    0.8280    1.3090 C   0  0  1  0  0  0  0  0  0  0  0  0
   -1.6870   -0.1900    0.9440 C   0  0  3  0  0  0  0  0  0  0  0  0
    2.8620    0.7580    0.0120 C   0  0  0  0  0  0  0  0  0  0  0  0
    3.1930   -0.5610   -0.3710 C   0  0  0  0  0  0  0  0  0  0  0  0
    0.7060    2.1620   -0.6300 C   0  0  0  0  0  0  0  0  0  0  0  0
    0.9150    2.3590   -1.6870 H   0  0  0  0  0  0  0  0  0  0  0  0
    0.9940    3.0550   -0.0620 H   0  0  0  0  0  0  0  0  0  0  0  0
   -3.0090    0.2320    0.2380 C   0  0  2  0  0  0  0  0  0  0  0  0
   -0.9950   -1.2660    0.0800 C   0  0  0  0  0  0  0  0  0  0  0  0
   -1.7190   -2.0340   -0.2170 H   0  0  0  0  0  0  0  0  0  0  0  0
   -0.2330   -1.8220    0.6320 H   0  0  0  0  0  0  0  0  0  0  0  0
   -3.4230    1.5920   -1.7530 O   0  0  0  0  0  0  0  0  0  0  0  0
   -4.3680    1.3810   -1.6600 H   0  0  0  0  0  0  0  0  0  0  0  0
    0.9200   -0.3650    2.0260 O   0  0  0  0  0  0  0  0  0  0  0  0
    0.6640   -0.2180    2.9530 H   0  0  0  0  0  0  0  0  0  0  0  0
    2.0440   -2.6430   -1.2110 C   0  0  0  0  0  0  0  0  0  0  0  0
    1.0400   -2.9500   -1.5160 H   0  0  0  0  0  0  0  0  0  0  0  0
    2.3310   -3.2570   -0.3510 H   0  0  0  0  0  0  0  0  0  0  0  0
    2.7230   -2.8650   -2.0410 H   0  0  0  0  0  0  0  0  0  0  0  0
    3.8160    1.6420    0.4890 C   0  0  0  0  0  0  0  0  0  0  0  0
    3.5550    2.6480    0.7980 H   0  0  0  0  0  0  0  0  0  0  0  0
    4.4950   -1.0100   -0.2450 C   0  0  0  0  0  0  0  0  0  0  0  0
    4.7690   -2.0190   -0.5310 H   0  0  0  0  0  0  0  0  0  0  0  0
   -4.1690   -0.7760    0.3660 C   0  0  0  0  0  0  0  0  0  0  0  0
   -5.0310   -0.3940   -0.1960 H   0  0  0  0  0  0  0  0  0  0  0  0
   -3.9070   -1.7370   -0.0900 H   0  0  0  0  0  0  0  0  0  0  0  0
   -4.6110   -1.0120    1.8030 C   0  0  0  0  0  0  0  0  0  0  0  0
   -4.8430   -0.0680    2.3040 H   0  0  0  0  0  0  0  0  0  0  0  0
   -3.8430   -1.5340    2.3800 H   0  0  0  0  0  0  0  0  0  0  0  0
   -5.5120   -1.6340    1.8180 H   0  0  0  0  0  0  0  0  0  0  0  0
    5.1330    1.1890    0.5930 C   0  0  0  0  0  0  0  0  0  0  0  0
    5.9070    1.8560    0.9670 H   0  0  0  0  0  0  0  0  0  0  0  0
    5.4690   -0.1270    0.2360 C   0  0  0  0  0  0  0  0  0  0  0  0
    6.4990   -0.4620    0.3320 H   0  0  0  0  0  0  0  0  0  0  0  0
    1.3050    0.1540   -2.1150 H   0  0  0  0  0  0  0  0  0  0  0  0
   -2.9150   -0.3710   -1.8900 H   0  0  0  0  0  0  0  0  0  0  0  0
   -1.1950    1.7680    1.7720 H   0  0  0  0  0  0  0  0  0  0  0  0
   -1.4330    2.6520   -0.4520 H   0  0  0  0  0  0  0  0  0  0  0  0
   -0.6140   -1.2200   -2.0600 H   0  0  0  0  0  0  0  0  0  0  0  0
    1.0830    1.6480    1.9330 H   0  0  0  0  0  0  0  0  0  0  0  0
   -1.8690   -0.5710    1.9530 H   0  0  0  0  0  0  0  0  0  0  0  0
   -3.3650    1.1670    0.6970 H   0  0  0  0  0  0  0  0  0  0  0  0
  1  4  1  0  0  0  0
  1 10  1  0  0  0  0
  1 12  1  0  0  0  0
  1 14  1  0  0  0  0
  2  3  1  0  0  0  0
  2  7  1  0  0  0  0
  2  8  1  0  0  0  0
  2  9  1  0  0  0  0
  4  5  1  0  0  0  0
  4  8  1  0  0  0  0
  4 44  1  0  0  0  0
  5 13  1  0  0  0  0
  5 25  1  0  0  0  0
  6  7  1  0  0  0  0
  6 10  1  0  0  0  0
  6 11  1  0  0  0  0
  6 46  1  0  0  0  0
  7 14  1  0  0  0  0
  7 47  1  0  0  0  0
  8 18  1  0  0  0  0
  8 48  1  0  0  0  0
  9 17  1  0  0  0  0
  9 21  1  0  0  0  0
  9 45  1  0  0  0  0
 10 23  1  0  0  0  0
 10 49  1  0  0  0  0
 11 17  1  0  0  0  0
 11 18  1  0  0  0  0
 11 50  1  0  0  0  0
 12 13  2  0  0  0  0
 12 29  1  0  0  0  0
 13 31  1  0  0  0  0
 14 15  1  0  0  0  0
 14 16  1  0  0  0  0
 17 33  1  0  0  0  0
 17 51  1  0  0  0  0
 18 19  1  0  0  0  0
 18 20  1  0  0  0  0
 21 22  1  0  0  0  0
 23 24  1  0  0  0  0
 25 26  1  0  0  0  0
 25 27  1  0  0  0  0
 25 28  1  0  0  0  0
 29 30  1  0  0  0  0
 29 40  2  0  0  0  0
 31 32  1  0  0  0  0
 31 42  2  0  0  0  0
 33 34  1  0  0  0  0
 33 35  1  0  0  0  0
 33 36  1  0  0  0  0
 36 37  1  0  0  0  0
 36 38  1  0  0  0  0
 36 39  1  0  0  0  0
 40 41  1  0  0  0  0
 40 42  1  0  0  0  0
 42 43  1  0  0  0  0
M  CHG  1   2   1
M  END
>  <IDNUMBER>
AP-163/40806934

>  <NAME>
Ajmaline

>  <ADD_INFO>
http://www.specs.net/enter.php?specsid=AP-163/40806934

>  <H_ACCEPTORS>
4

>  <H_DONORS>
2

>  <ROTATABLE_BONDS>
1

>  <LOGP>
1.8099999

>  <LOGS>
-2.1199999

>  <TPSA>
46.939999

>  <PRICE>
N07

$$$$
AP-715/41001596
  MOE2011           3D

105112  0  0  1  0  0  0  0  0999 V2000
    0.3370    0.8260   -1.3350 C   0  0  2  0  0  0  0  0  0  0  0  0
    1.7870    0.3060   -1.1610 C   0  0  2  0  0  0  0  0  0  0  0  0
   -2.3000    0.3550   -1.2490 C   0  0  2  0  0  0  0  0  0  0  0  0
   -2.3620    1.8410   -1.2020 C   0  0  1  0  0  0  0  0  0  0  0  0
   -5.6280   -0.1000    1.0750 C   0  0  1  0  0  0  0  0  0  0  0  0
   -0.8000   -0.0630   -0.6930 C   0  0  3  0  0  0  0  0  0  0  0  0
   -3.2560    1.2590    0.2520 C   0  0  3  0  0  0  0  0  0  0  0  0
   -3.4660   -0.5590    0.0880 C   0  0  2  0  0  0  0  0  0  0  0  0
    1.0850    0.2020   -2.4960 C   0  0  0  0  0  0  0  0  0  0  0  0
    0.8070   -0.7820   -2.8590 H   0  0  0  0  0  0  0  0  0  0  0  0
    1.4070    0.8520   -3.3050 H   0  0  0  0  0  0  0  0  0  0  0  0
   -4.5180    1.9060    0.8610 C   0  0  1  0  0  0  0  0  0  0  0  0
   -2.7190   -1.0620   -1.5210 C   0  0  2  0  0  0  0  0  0  0  0  0
   -4.8000   -1.0040    0.3140 O   0  0  0  0  0  0  0  0  0  0  0  0
    1.8810   -0.9230   -0.2350 C   0  0  3  0  0  0  0  0  0  0  0  0
   -5.6770    1.1870    0.4150 O   0  0  0  0  0  0  0  0  0  0  0  0
    7.3130    1.1390    0.1800 C   0  0  1  0  0  0  0  0  0  0  0  0
    6.4020   -0.0340   -0.2550 C   0  0  1  0  0  0  0  0  0  0  0  0
    3.3610   -1.3410    0.0480 C   0  0  0  0  0  0  0  0  0  0  0  0
    8.7100    0.6460    0.5600 C   0  0  2  0  0  0  0  0  0  0  0  0
    0.0850    2.3060   -1.3700 C   0  0  0  0  0  0  0  0  0  0  0  0
    0.8980    2.8690   -0.9040 H   0  0  0  0  0  0  0  0  0  0  0  0
   -0.0020    2.6560   -2.4050 H   0  0  0  0  0  0  0  0  0  0  0  0
    4.1300   -0.1380    0.6740 C   0  0  1  0  0  0  0  0  0  0  0  0
    7.2010   -1.1700   -0.6230 O   0  0  0  0  0  0  0  0  0  0  0  0
   -1.1690    2.6260   -0.6020 C   0  0  0  0  0  0  0  0  0  0  0  0
   -1.3520    3.7080   -0.6110 H   0  0  0  0  0  0  0  0  0  0  0  0
   -0.9930    2.4150    0.4560 H   0  0  0  0  0  0  0  0  0  0  0  0
    5.5320   -0.3780    0.8240 O   0  0  0  0  0  0  0  0  0  0  0  0
    3.0090    1.2140   -1.1910 C   0  0  0  0  0  0  0  0  0  0  0  0
    3.6900    0.8810   -1.9800 H   0  0  0  0  0  0  0  0  0  0  0  0
    2.7510    2.2370   -1.4800 H   0  0  0  0  0  0  0  0  0  0  0  0
   -0.4470   -0.3500    0.7810 C   0  0  0  0  0  0  0  0  0  0  0  0
   -0.7540    0.4530    1.4530 H   0  0  0  0  0  0  0  0  0  0  0  0
   -0.9610   -1.2560    1.1140 H   0  0  0  0  0  0  0  0  0  0  0  0
   -7.0720   -0.7000    1.1380 C   0  0  0  0  0  0  0  0  0  0  0  0
   -2.0090   -2.2580   -1.1220 O   0  0  0  0  0  0  0  0  0  0  0  0
    1.0550   -0.6070    1.0390 C   0  0  0  0  0  0  0  0  0  0  0  0
    1.1250   -1.4230    1.7650 H   0  0  0  0  0  0  0  0  0  0  0  0
    1.4600    0.2790    1.5410 H   0  0  0  0  0  0  0  0  0  0  0  0
    8.6150   -0.6600    1.3380 C   0  0  1  0  0  0  0  0  0  0  0  0
   -5.0110    0.1740    2.4590 C   0  0  0  0  0  0  0  0  0  0  0  0
   -5.7160    0.0470    3.2860 H   0  0  0  0  0  0  0  0  0  0  0  0
   -4.1610   -0.4810    2.6770 H   0  0  0  0  0  0  0  0  0  0  0  0
   -2.6990   -3.4280   -1.1590 C   0  0  0  0  0  0  0  0  0  0  0  0
   -4.5840    1.6310    2.3710 C   0  0  0  0  0  0  0  0  0  0  0  0
   -3.6500    1.8340    2.9030 H   0  0  0  0  0  0  0  0  0  0  0  0
   -5.3660    2.2450    2.8370 H   0  0  0  0  0  0  0  0  0  0  0  0
    7.9450   -1.7250    0.4660 C   0  0  0  0  0  0  0  0  0  0  0  0
    7.2790   -2.3490    1.0730 H   0  0  0  0  0  0  0  0  0  0  0  0
    8.6920   -2.4010    0.0350 H   0  0  0  0  0  0  0  0  0  0  0  0
    3.7530    1.2550    0.1340 C   0  0  0  0  0  0  0  0  0  0  0  0
    3.0940    1.7420    0.8660 H   0  0  0  0  0  0  0  0  0  0  0  0
    4.6220    1.9130    0.0510 H   0  0  0  0  0  0  0  0  0  0  0  0
   -3.8450   -3.5760   -1.5540 O   0  0  0  0  0  0  0  0  0  0  0  0
    7.4520    2.0980   -0.8800 O   0  0  0  0  0  0  0  0  0  0  0  0
    8.1150    2.7420   -0.5650 H   0  0  0  0  0  0  0  0  0  0  0  0
   -4.0530    0.4300   -1.8730 C   0  0  0  0  0  0  0  0  0  0  0  0
   -4.6540    1.2820   -1.5620 H   0  0  0  0  0  0  0  0  0  0  0  0
   -4.7640   -0.4110   -1.7820 H   0  0  0  0  0  0  0  0  0  0  0  0
   -3.9450    0.5440   -2.9690 H   0  0  0  0  0  0  0  0  0  0  0  0
   -2.9330    2.7310   -2.3240 C   0  0  0  0  0  0  0  0  0  0  0  0
   -2.5920    3.7700   -2.2410 H   0  0  0  0  0  0  0  0  0  0  0  0
   -4.0170    2.8360   -2.3820 H   0  0  0  0  0  0  0  0  0  0  0  0
   -2.5650    2.3810   -3.2960 H   0  0  0  0  0  0  0  0  0  0  0  0
    9.3680    1.6440    1.3510 O   0  0  0  0  0  0  0  0  0  0  0  0
   10.1320    1.1780    1.7480 H   0  0  0  0  0  0  0  0  0  0  0  0
   -4.6530    3.3900    0.5690 C   0  0  0  0  0  0  0  0  0  0  0  0
   -3.7590    3.9430    0.8740 H   0  0  0  0  0  0  0  0  0  0  0  0
   -5.5150    3.8150    1.0980 H   0  0  0  0  0  0  0  0  0  0  0  0
   -4.8460    3.5760   -0.4890 H   0  0  0  0  0  0  0  0  0  0  0  0
   -7.0720   -1.8610    1.9880 O   0  0  0  0  0  0  0  0  0  0  0  0
   -7.9310   -2.3050    1.8870 H   0  0  0  0  0  0  0  0  0  0  0  0
    9.9340   -1.0500    1.7310 O   0  0  0  0  0  0  0  0  0  0  0  0
    9.8570   -1.8810    2.2330 H   0  0  0  0  0  0  0  0  0  0  0  0
    3.4220   -2.5290    1.0460 C   0  0  0  0  0  0  0  0  0  0  0  0
    2.7890   -3.3580    0.7100 H   0  0  0  0  0  0  0  0  0  0  0  0
    3.0990   -2.2450    2.0520 H   0  0  0  0  0  0  0  0  0  0  0  0
    4.4450   -2.9110    1.1440 H   0  0  0  0  0  0  0  0  0  0  0  0
    3.9860   -1.8950   -1.2550 C   0  0  0  0  0  0  0  0  0  0  0  0
    3.3570   -2.6880   -1.6770 H   0  0  0  0  0  0  0  0  0  0  0  0
    4.9660   -2.3450   -1.0730 H   0  0  0  0  0  0  0  0  0  0  0  0
    4.1110   -1.1440   -2.0350 H   0  0  0  0  0  0  0  0  0  0  0  0
   -7.5550   -1.1350   -0.2560 C   0  0  0  0  0  0  0  0  0  0  0  0
   -7.5390   -0.3030   -0.9670 H   0  0  0  0  0  0  0  0  0  0  0  0
   -8.5770   -1.5270   -0.2100 H   0  0  0  0  0  0  0  0  0  0  0  0
   -6.9400   -1.9500   -0.6530 H   0  0  0  0  0  0  0  0  0  0  0  0
   -8.0900    0.2920    1.7230 C   0  0  0  0  0  0  0  0  0  0  0  0
   -8.1760    1.1980    1.1130 H   0  0  0  0  0  0  0  0  0  0  0  0
   -7.8280    0.5850    2.7440 H   0  0  0  0  0  0  0  0  0  0  0  0
   -9.0830   -0.1670    1.7890 H   0  0  0  0  0  0  0  0  0  0  0  0
   -1.8320   -4.5370   -0.6470 C   0  0  0  0  0  0  0  0  0  0  0  0
   -1.5230   -4.3220    0.3800 H   0  0  0  0  0  0  0  0  0  0  0  0
   -0.9600   -4.6550   -1.2940 H   0  0  0  0  0  0  0  0  0  0  0  0
   -2.4000   -5.4720   -0.6490 H   0  0  0  0  0  0  0  0  0  0  0  0
   -0.5180   -0.9800   -1.2070 H   0  0  0  0  0  0  0  0  0  0  0  0
   -2.5170    1.3290    1.0570 H   0  0  0  0  0  0  0  0  0  0  0  0
   -2.8850   -1.0200    0.8880 H   0  0  0  0  0  0  0  0  0  0  0  0
   -3.3040   -1.3640   -2.3980 H   0  0  0  0  0  0  0  0  0  0  0  0
    1.4040   -1.7830   -0.7260 H   0  0  0  0  0  0  0  0  0  0  0  0
    6.8560    1.6830    1.0150 H   0  0  0  0  0  0  0  0  0  0  0  0
    5.8380    0.2420   -1.1500 H   0  0  0  0  0  0  0  0  0  0  0  0
    9.3360    0.5170   -0.3310 H   0  0  0  0  0  0  0  0  0  0  0  0
    3.8060   -0.0970    1.7230 H   0  0  0  0  0  0  0  0  0  0  0  0
    8.0470   -0.5030    2.2630 H   0  0  0  0  0  0  0  0  0  0  0  0
  1  2  1  0  0  0  0
  1  6  1  0  0  0  0
  1  9  1  0  0  0  0
  1 21  1  0  0  0  0
  2  9  1  0  0  0  0
  2 15  1  0  0  0  0
  2 30  1  0  0  0  0
  3  4  1  0  0  0  0
  3  6  1  0  0  0  0
  3 13  1  0  0  0  0
  3 58  1  0  0  0  0
  4  7  1  0  0  0  0
  4 26  1  0  0  0  0
  4 62  1  0  0  0  0
  5 14  1  0  0  0  0
  5 16  1  0  0  0  0
  5 36  1  0  0  0  0
  5 42  1  0  0  0  0
  6 33  1  0  0  0  0
  6 96  1  0  0  0  0
  7  8  1  0  0  0  0
  7 12  1  0  0  0  0
  7 97  1  0  0  0  0
  8 13  1  0  0  0  0
  8 14  1  0  0  0  0
  8 98  1  0  0  0  0
  9 10  1  0  0  0  0
  9 11  1  0  0  0  0
 12 16  1  0  0  0  0
 12 46  1  0  0  0  0
 12 68  1  0  0  0  0
 13 37  1  0  0  0  0
 13 99  1  0  0  0  0
 15 19  1  0  0  0  0
 15 38  1  0  0  0  0
 15100  1  0  0  0  0
 17 18  1  0  0  0  0
 17 20  1  0  0  0  0
 17 56  1  0  0  0  0
 17101  1  0  0  0  0
 18 25  1  0  0  0  0
 18 29  1  0  0  0  0
 18102  1  0  0  0  0
 19 24  1  0  0  0  0
 19 76  1  0  0  0  0
 19 80  1  0  0  0  0
 20 41  1  0  0  0  0
 20 66  1  0  0  0  0
 20103  1  0  0  0  0
 21 22  1  0  0  0  0
 21 23  1  0  0  0  0
 21 26  1  0  0  0  0
 24 29  1  0  0  0  0
 24 52  1  0  0  0  0
 24104  1  0  0  0  0
 25 49  1  0  0  0  0
 26 27  1  0  0  0  0
 26 28  1  0  0  0  0
 30 31  1  0  0  0  0
 30 32  1  0  0  0  0
 30 52  1  0  0  0  0
 33 34  1  0  0  0  0
 33 35  1  0  0  0  0
 33 38  1  0  0  0  0
 36 72  1  0  0  0  0
 36 84  1  0  0  0  0
 36 88  1  0  0  0  0
 37 45  1  0  0  0  0
 38 39  1  0  0  0  0
 38 40  1  0  0  0  0
 41 49  1  0  0  0  0
 41 74  1  0  0  0  0
 41105  1  0  0  0  0
 42 43  1  0  0  0  0
 42 44  1  0  0  0  0
 42 46  1  0  0  0  0
 45 55  2  0  0  0  0
 45 92  1  0  0  0  0
 46 47  1  0  0  0  0
 46 48  1  0  0  0  0
 49 50  1  0  0  0  0
 49 51  1  0  0  0  0
 52 53  1  0  0  0  0
 52 54  1  0  0  0  0
 56 57  1  0  0  0  0
 58 59  1  0  0  0  0
 58 60  1  0  0  0  0
 58 61  1  0  0  0  0
 62 63  1  0  0  0  0
 62 64  1  0  0  0  0
 62 65  1  0  0  0  0
 66 67  1  0  0  0  0
 68 69  1  0  0  0  0
 68 70  1  0  0  0  0
 68 71  1  0  0  0  0
 72 73  1  0  0  0  0
 74 75  1  0  0  0  0
 76 77  1  0  0  0  0
 76 78  1  0  0  0  0
 76 79  1  0  0  0  0
 80 81  1  0  0  0  0
 80 82  1  0  0  0  0
 80 83  1  0  0  0  0
 84 85  1  0  0  0  0
 84 86  1  0  0  0  0
 84 87  1  0  0  0  0
 88 89  1  0  0  0  0
 88 90  1  0  0  0  0
 88 91  1  0  0  0  0
 92 93  1  0  0  0  0
 92 94  1  0  0  0  0
 92 95  1  0  0  0  0
M  END
>  <IDNUMBER>
AP-715/41001596

>  <NAME>
Beesioside I, Derivative of

>  <ADD_INFO>
http://www.specs.net/enter.php?specsid=AP-715/41001596

>  <H_ACCEPTORS>
10

>  <H_DONORS>
4

>  <ROTATABLE_BONDS>
5

>  <LOGP>
6.9099998

>  <LOGS>
-9.9300003

>  <TPSA>
144.14

>  <PRICE>
N07

$$$$
AP-715/41001600
  MOE2011           3D

106113  0  0  1  0  0  0  0  0999 V2000
    0.2280    0.2750   -0.3070 C   0  0  2  0  0  0  0  0  0  0  0  0
    1.7350    0.0920    0.0550 C   0  0  2  0  0  0  0  0  0  0  0  0
   -1.8330   -1.2090   -0.1560 C   0  0  2  0  0  0  0  0  0  0  0  0
   -2.7400    0.1090   -0.1250 C   0  0  2  0  0  0  0  0  0  0  0  0
   -0.5640   -0.8840   -0.9770 C   0  0  3  0  0  0  0  0  0  0  0  0
   -4.1860   -0.4780    0.0220 C   0  0  3  0  0  0  0  0  0  0  0  0
    1.3210    0.8490   -1.1850 C   0  0  0  0  0  0  0  0  0  0  0  0
    1.5070    0.4060   -2.1580 H   0  0  0  0  0  0  0  0  0  0  0  0
    1.4630    1.9260   -1.2120 H   0  0  0  0  0  0  0  0  0  0  0  0
   -5.2350    0.3650    0.7580 C   0  0  1  0  0  0  0  0  0  0  0  0
   -4.8670    2.3060   -0.4830 C   0  0  2  0  0  0  0  0  0  0  0  0
   -2.8100   -2.3000   -0.6600 C   0  0  1  0  0  0  0  0  0  0  0  0
   -4.0790   -1.9970    0.1940 C   0  0  2  0  0  0  0  0  0  0  0  0
    2.4340   -1.2630   -0.1920 C   0  0  3  0  0  0  0  0  0  0  0  0
   -4.7610    1.7160    0.8350 O   0  0  0  0  0  0  0  0  0  0  0  0
    7.6780   -0.2130   -1.0550 C   0  0  1  0  0  0  0  0  0  0  0  0
    6.8070   -0.0490    0.2050 C   0  0  1  0  0  0  0  0  0  0  0  0
    3.5760   -1.5940    0.8370 C   0  0  0  0  0  0  0  0  0  0  0  0
    9.1030    0.2660   -0.7860 C   0  0  2  0  0  0  0  0  0  0  0  0
   -3.6240    2.2340   -1.2190 O   0  0  0  0  0  0  0  0  0  0  0  0
   -0.5980    1.3470    0.4620 C   0  0  0  0  0  0  0  0  0  0  0  0
   -0.0710    1.6550    1.3700 H   0  0  0  0  0  0  0  0  0  0  0  0
   -0.6450    2.2450   -0.1680 H   0  0  0  0  0  0  0  0  0  0  0  0
    4.5510   -0.3800    0.9720 C   0  0  1  0  0  0  0  0  0  0  0  0
   -2.9100    1.0000   -1.4200 C   0  0  0  0  0  0  0  0  0  0  0  0
   -3.3750    0.4630   -2.2540 H   0  0  0  0  0  0  0  0  0  0  0  0
   -1.9410    1.3110   -1.8160 H   0  0  0  0  0  0  0  0  0  0  0  0
    6.8850    1.2920    0.7010 O   0  0  0  0  0  0  0  0  0  0  0  0
    5.4550   -0.3730   -0.1480 O   0  0  0  0  0  0  0  0  0  0  0  0
    2.3660    0.9570    1.1320 C   0  0  0  0  0  0  0  0  0  0  0  0
    2.0200    1.9960    1.0560 H   0  0  0  0  0  0  0  0  0  0  0  0
    2.0600    0.6260    2.1260 H   0  0  0  0  0  0  0  0  0  0  0  0
   -2.0400    1.0080    0.9080 C   0  0  0  0  0  0  0  0  0  0  0  0
   -2.5360    1.9700    1.0640 H   0  0  0  0  0  0  0  0  0  0  0  0
   -2.0370    0.5600    1.9050 H   0  0  0  0  0  0  0  0  0  0  0  0
    0.3120   -2.1020   -1.3190 C   0  0  0  0  0  0  0  0  0  0  0  0
   -0.3040   -2.9960   -1.4630 H   0  0  0  0  0  0  0  0  0  0  0  0
    0.7890   -1.9240   -2.2930 H   0  0  0  0  0  0  0  0  0  0  0  0
   -5.2630   -2.6390   -0.3000 O   0  0  0  0  0  0  0  0  0  0  0  0
    1.4120   -2.4060   -0.3150 C   0  0  0  0  0  0  0  0  0  0  0  0
    1.9170   -3.3190   -0.6510 H   0  0  0  0  0  0  0  0  0  0  0  0
    0.9760   -2.6410    0.6560 H   0  0  0  0  0  0  0  0  0  0  0  0
   -5.1870    3.8420   -0.2950 C   0  0  0  0  0  0  0  0  0  0  0  0
    9.1080    1.6690   -0.1870 C   0  0  1  0  0  0  0  0  0  0  0  0
   -5.3230   -3.9850   -0.1140 C   0  0  0  0  0  0  0  0  0  0  0  0
   -6.4910    0.5580   -0.0970 C   0  0  0  0  0  0  0  0  0  0  0  0
   -6.8940   -0.3690   -0.5140 H   0  0  0  0  0  0  0  0  0  0  0  0
   -7.2850    1.0370    0.4900 H   0  0  0  0  0  0  0  0  0  0  0  0
   -6.0150    1.5380   -1.1720 C   0  0  0  0  0  0  0  0  0  0  0  0
   -6.8480    2.1690   -1.4930 H   0  0  0  0  0  0  0  0  0  0  0  0
   -5.6740    1.0180   -2.0730 H   0  0  0  0  0  0  0  0  0  0  0  0
    8.2090    1.6860    1.0440 C   0  0  0  0  0  0  0  0  0  0  0  0
    8.1680    2.6980    1.4610 H   0  0  0  0  0  0  0  0  0  0  0  0
    8.6000    1.0400    1.8400 H   0  0  0  0  0  0  0  0  0  0  0  0
    3.8760    0.9950    1.0040 C   0  0  0  0  0  0  0  0  0  0  0  0
    4.2850    1.5760    1.8400 H   0  0  0  0  0  0  0  0  0  0  0  0
    4.1330    1.5610    0.0980 H   0  0  0  0  0  0  0  0  0  0  0  0
   -4.4810   -4.6680    0.4520 O   0  0  0  0  0  0  0  0  0  0  0  0
   -3.0790   -2.1510   -2.0520 O   0  0  0  0  0  0  0  0  0  0  0  0
   -2.3240   -2.5260   -2.5370 H   0  0  0  0  0  0  0  0  0  0  0  0
    7.7430   -1.5840   -1.4720 O   0  0  0  0  0  0  0  0  0  0  0  0
    8.4010   -1.5980   -2.1940 H   0  0  0  0  0  0  0  0  0  0  0  0
   -1.3950   -1.7110    1.2730 C   0  0  0  0  0  0  0  0  0  0  0  0
   -0.5330   -1.1710    1.6740 H   0  0  0  0  0  0  0  0  0  0  0  0
   -1.1210   -2.7720    1.2470 H   0  0  0  0  0  0  0  0  0  0  0  0
   -2.1850   -1.6120    2.0230 H   0  0  0  0  0  0  0  0  0  0  0  0
    9.8420    0.2540   -2.0140 O   0  0  0  0  0  0  0  0  0  0  0  0
   10.6820    0.7130   -1.8090 H   0  0  0  0  0  0  0  0  0  0  0  0
   -5.5400   -0.1320    2.1610 C   0  0  0  0  0  0  0  0  0  0  0  0
   -6.0210   -1.1140    2.1490 H   0  0  0  0  0  0  0  0  0  0  0  0
   -6.1980    0.5670    2.6890 H   0  0  0  0  0  0  0  0  0  0  0  0
   -4.6220   -0.1970    2.7560 H   0  0  0  0  0  0  0  0  0  0  0  0
   -4.0950    4.4750    0.4120 O   0  0  0  0  0  0  0  0  0  0  0  0
   -4.3010    5.4200    0.5060 H   0  0  0  0  0  0  0  0  0  0  0  0
   10.4530    2.0120    0.1420 O   0  0  0  0  0  0  0  0  0  0  0  0
   10.4530    2.9270    0.4760 H   0  0  0  0  0  0  0  0  0  0  0  0
    3.0300   -1.9980    2.2300 C   0  0  0  0  0  0  0  0  0  0  0  0
    2.5550   -2.9850    2.2050 H   0  0  0  0  0  0  0  0  0  0  0  0
    2.2860   -1.3070    2.6270 H   0  0  0  0  0  0  0  0  0  0  0  0
    3.8420   -2.0650    2.9640 H   0  0  0  0  0  0  0  0  0  0  0  0
    4.3930   -2.8220    0.3390 C   0  0  0  0  0  0  0  0  0  0  0  0
    3.8160   -3.7510    0.4000 H   0  0  0  0  0  0  0  0  0  0  0  0
    5.2920   -2.9650    0.9500 H   0  0  0  0  0  0  0  0  0  0  0  0
    4.7100   -2.7040   -0.7030 H   0  0  0  0  0  0  0  0  0  0  0  0
   -6.4430    4.0870    0.5550 C   0  0  0  0  0  0  0  0  0  0  0  0
   -7.3490    3.6950    0.0850 H   0  0  0  0  0  0  0  0  0  0  0  0
   -6.5940    5.1600    0.7240 H   0  0  0  0  0  0  0  0  0  0  0  0
   -6.3420    3.6370    1.5480 H   0  0  0  0  0  0  0  0  0  0  0  0
   -5.3100    4.5710   -1.6420 C   0  0  0  0  0  0  0  0  0  0  0  0
   -6.1310    4.1820   -2.2510 H   0  0  0  0  0  0  0  0  0  0  0  0
   -4.3820    4.4940   -2.2190 H   0  0  0  0  0  0  0  0  0  0  0  0
   -5.4830    5.6430   -1.4890 H   0  0  0  0  0  0  0  0  0  0  0  0
   -6.5970   -4.5210   -0.6900 C   0  0  0  0  0  0  0  0  0  0  0  0
   -6.6780   -4.2360   -1.7430 H   0  0  0  0  0  0  0  0  0  0  0  0
   -7.4490   -4.1400   -0.1210 H   0  0  0  0  0  0  0  0  0  0  0  0
   -6.5900   -5.6130   -0.6290 H   0  0  0  0  0  0  0  0  0  0  0  0
   -0.8970   -0.5190   -1.9560 H   0  0  0  0  0  0  0  0  0  0  0  0
   -4.5900   -0.4900   -0.9990 H   0  0  0  0  0  0  0  0  0  0  0  0
   -2.4580   -3.3230   -0.4980 H   0  0  0  0  0  0  0  0  0  0  0  0
   -3.9570   -2.2610    1.2490 H   0  0  0  0  0  0  0  0  0  0  0  0
    2.9280   -1.1740   -1.1710 H   0  0  0  0  0  0  0  0  0  0  0  0
    7.2390    0.3480   -1.8900 H   0  0  0  0  0  0  0  0  0  0  0  0
    7.1400   -0.7550    0.9780 H   0  0  0  0  0  0  0  0  0  0  0  0
    9.6210   -0.4380   -0.1220 H   0  0  0  0  0  0  0  0  0  0  0  0
    5.1310   -0.5100    1.8960 H   0  0  0  0  0  0  0  0  0  0  0  0
    8.7540    2.3870   -0.9370 H   0  0  0  0  0  0  0  0  0  0  0  0
  1  2  1  0  0  0  0
  1  5  1  0  0  0  0
  1  7  1  0  0  0  0
  1 21  1  0  0  0  0
  2  7  1  0  0  0  0
  2 14  1  0  0  0  0
  2 30  1  0  0  0  0
  3  4  1  0  0  0  0
  3  5  1  0  0  0  0
  3 12  1  0  0  0  0
  3 63  1  0  0  0  0
  4  6  1  0  0  0  0
  4 25  1  0  0  0  0
  4 33  1  0  0  0  0
  5 36  1  0  0  0  0
  5 97  1  0  0  0  0
  6 10  1  0  0  0  0
  6 13  1  0  0  0  0
  6 98  1  0  0  0  0
  7  8  1  0  0  0  0
  7  9  1  0  0  0  0
 10 15  1  0  0  0  0
 10 46  1  0  0  0  0
 10 69  1  0  0  0  0
 11 15  1  0  0  0  0
 11 20  1  0  0  0  0
 11 43  1  0  0  0  0
 11 49  1  0  0  0  0
 12 13  1  0  0  0  0
 12 59  1  0  0  0  0
 12 99  1  0  0  0  0
 13 39  1  0  0  0  0
 13100  1  0  0  0  0
 14 18  1  0  0  0  0
 14 40  1  0  0  0  0
 14101  1  0  0  0  0
 16 17  1  0  0  0  0
 16 19  1  0  0  0  0
 16 61  1  0  0  0  0
 16102  1  0  0  0  0
 17 28  1  0  0  0  0
 17 29  1  0  0  0  0
 17103  1  0  0  0  0
 18 24  1  0  0  0  0
 18 77  1  0  0  0  0
 18 81  1  0  0  0  0
 19 44  1  0  0  0  0
 19 67  1  0  0  0  0
 19104  1  0  0  0  0
 20 25  1  0  0  0  0
 21 22  1  0  0  0  0
 21 23  1  0  0  0  0
 21 33  1  0  0  0  0
 24 29  1  0  0  0  0
 24 55  1  0  0  0  0
 24105  1  0  0  0  0
 25 26  1  0  0  0  0
 25 27  1  0  0  0  0
 28 52  1  0  0  0  0
 30 31  1  0  0  0  0
 30 32  1  0  0  0  0
 30 55  1  0  0  0  0
 33 34  1  0  0  0  0
 33 35  1  0  0  0  0
 36 37  1  0  0  0  0
 36 38  1  0  0  0  0
 36 40  1  0  0  0  0
 39 45  1  0  0  0  0
 40 41  1  0  0  0  0
 40 42  1  0  0  0  0
 43 73  1  0  0  0  0
 43 85  1  0  0  0  0
 43 89  1  0  0  0  0
 44 52  1  0  0  0  0
 44 75  1  0  0  0  0
 44106  1  0  0  0  0
 45 58  2  0  0  0  0
 45 93  1  0  0  0  0
 46 47  1  0  0  0  0
 46 48  1  0  0  0  0
 46 49  1  0  0  0  0
 49 50  1  0  0  0  0
 49 51  1  0  0  0  0
 52 53  1  0  0  0  0
 52 54  1  0  0  0  0
 55 56  1  0  0  0  0
 55 57  1  0  0  0  0
 59 60  1  0  0  0  0
 61 62  1  0  0  0  0
 63 64  1  0  0  0  0
 63 65  1  0  0  0  0
 63 66  1  0  0  0  0
 67 68  1  0  0  0  0
 69 70  1  0  0  0  0
 69 71  1  0  0  0  0
 69 72  1  0  0  0  0
 73 74  1  0  0  0  0
 75 76  1  0  0  0  0
 77 78  1  0  0  0  0
 77 79  1  0  0  0  0
 77 80  1  0  0  0  0
 81 82  1  0  0  0  0
 81 83  1  0  0  0  0
 81 84  1  0  0  0  0
 85 86  1  0  0  0  0
 85 87  1  0  0  0  0
 85 88  1  0  0  0  0
 89 90  1  0  0  0  0
 89 91  1  0  0  0  0
 89 92  1  0  0  0  0
 93 94  1  0  0  0  0
 93 95  1  0  0  0  0
 93 96  1  0  0  0  0
M  END
>  <IDNUMBER>
AP-715/41001600

>  <NAME>
Beesioside I, Derivative of

>  <ADD_INFO>
http://www.specs.net/enter.php?specsid=AP-715/41001600

>  <H_ACCEPTORS>
11

>  <H_DONORS>
5

>  <ROTATABLE_BONDS>
5

>  <LOGP>
5.4400001

>  <LOGS>
-8.79

>  <TPSA>
164.37

>  <PRICE>
N07

$$$$
AQ-152/40869875
  MOE2011           3D

 82 85  0  0  1  0  0  0  0  0999 V2000
    1.6370    1.9600   -0.6420 C   0  0  1  0  0  0  0  0  0  0  0  0
   -2.5080    0.3190   -0.4340 C   0  0  2  0  0  0  0  0  0  0  0  0
    1.0610    1.5090    0.7160 C   0  0  3  0  0  0  0  0  0  0  0  0
   -1.0640    0.9310   -0.5880 C   0  0  3  0  0  0  0  0  0  0  0  0
   -0.4650    1.3220    0.7820 C   0  0  3  0  0  0  0  0  0  0  0  0
    3.1610    2.1490   -0.2970 C   0  0  3  0  0  0  0  0  0  0  0  0
   -3.1550    0.8290    0.8930 C   0  0  2  0  0  0  0  0  0  0  0  0
    1.2290    0.9480   -1.7410 C   0  0  0  0  0  0  0  0  0  0  0  0
    1.0910    1.4700   -2.6960 H   0  0  0  0  0  0  0  0  0  0  0  0
    2.0040    0.2110   -1.9320 H   0  0  0  0  0  0  0  0  0  0  0  0
   -0.0560    0.1410   -1.4300 C   0  0  0  0  0  0  0  0  0  0  0  0
    0.2380   -0.7710   -0.8970 H   0  0  0  0  0  0  0  0  0  0  0  0
   -0.5030   -0.1830   -2.3770 H   0  0  0  0  0  0  0  0  0  0  0  0
    1.7300    2.4100    1.7410 C   0  0  0  0  0  0  0  0  0  0  0  0
    1.2460    3.3880    1.8180 H   0  0  0  0  0  0  0  0  0  0  0  0
    1.7280    1.9630    2.7410 H   0  0  0  0  0  0  0  0  0  0  0  0
   -2.5510   -1.2320   -0.3980 C   0  0  0  0  0  0  0  0  0  0  0  0
   -2.6680   -1.6310   -1.4130 H   0  0  0  0  0  0  0  0  0  0  0  0
   -1.5980   -1.6290   -0.0290 H   0  0  0  0  0  0  0  0  0  0  0  0
    3.1560    2.5780    1.2070 C   0  0  0  0  0  0  0  0  0  0  0  0
    3.8560    1.9900    1.8080 H   0  0  0  0  0  0  0  0  0  0  0  0
    3.4680    3.6250    1.3050 H   0  0  0  0  0  0  0  0  0  0  0  0
   -1.2910    2.4790    1.3810 C   0  0  0  0  0  0  0  0  0  0  0  0
   -1.0840    2.5410    2.4560 H   0  0  0  0  0  0  0  0  0  0  0  0
   -0.9950    3.4420    0.9520 H   0  0  0  0  0  0  0  0  0  0  0  0
   -7.1830   -1.0640   -0.4900 C   0  0  0  0  0  0  0  0  0  0  0  0
   -5.8230   -1.1940   -0.4520 N   0  0  0  0  0  0  0  0  0  0  0  0
   -5.4180   -1.4560   -1.3440 H   0  0  0  0  0  0  0  0  0  0  0  0
   -4.6510    0.5030    0.9530 C   0  0  0  0  0  0  0  0  0  0  0  0
   -5.2160    1.1460    0.2670 H   0  0  0  0  0  0  0  0  0  0  0  0
   -5.0200    0.7490    1.9570 H   0  0  0  0  0  0  0  0  0  0  0  0
   -2.8110    2.2960    1.1760 C   0  0  0  0  0  0  0  0  0  0  0  0
   -3.1490    2.9320    0.3490 H   0  0  0  0  0  0  0  0  0  0  0  0
   -3.3360    2.6510    2.0700 H   0  0  0  0  0  0  0  0  0  0  0  0
   -4.9260   -0.9960    0.6850 C   0  0  2  0  0  0  0  0  0  0  0  0
   -7.7960   -1.2630   -1.5380 O   0  0  0  0  0  0  0  0  0  0  0  0
    4.2270    1.0350   -0.5410 C   0  0  3  0  0  0  0  0  0  0  0  0
   -3.6460   -1.8320    0.5090 C   0  0  0  0  0  0  0  0  0  0  0  0
   -3.2050   -1.9750    1.5060 H   0  0  0  0  0  0  0  0  0  0  0  0
   -3.8910   -2.8420    0.1540 H   0  0  0  0  0  0  0  0  0  0  0  0
    1.1290    3.3700   -1.0730 C   0  0  0  0  0  0  0  0  0  0  0  0
    1.6170    3.6770   -2.0070 H   0  0  0  0  0  0  0  0  0  0  0  0
    1.3560    4.1430   -0.3310 H   0  0  0  0  0  0  0  0  0  0  0  0
    0.0550    3.4120   -1.2550 H   0  0  0  0  0  0  0  0  0  0  0  0
   -3.2940    0.7970   -1.6900 C   0  0  0  0  0  0  0  0  0  0  0  0
   -4.2990    0.3810   -1.7560 H   0  0  0  0  0  0  0  0  0  0  0  0
   -2.7770    0.5030   -2.6100 H   0  0  0  0  0  0  0  0  0  0  0  0
   -3.3990    1.8870   -1.7080 H   0  0  0  0  0  0  0  0  0  0  0  0
    5.0730   -1.3330   -0.0080 C   0  0  0  0  0  0  0  0  0  0  0  0
    5.2470   -1.6020   -1.0550 H   0  0  0  0  0  0  0  0  0  0  0  0
    5.9940   -0.8540    0.3470 H   0  0  0  0  0  0  0  0  0  0  0  0
   -7.8930   -0.6870    0.7820 C   0  0  0  0  0  0  0  0  0  0  0  0
   -7.7760   -1.4800    1.5250 H   0  0  0  0  0  0  0  0  0  0  0  0
   -8.9600   -0.5570    0.5770 H   0  0  0  0  0  0  0  0  0  0  0  0
   -7.5010    0.2540    1.1740 H   0  0  0  0  0  0  0  0  0  0  0  0
    3.9130   -0.3340    0.1000 C   0  0  0  0  0  0  0  0  0  0  0  0
    3.6840   -0.1940    1.1620 H   0  0  0  0  0  0  0  0  0  0  0  0
    3.0260   -0.7730   -0.3600 H   0  0  0  0  0  0  0  0  0  0  0  0
    4.6180    0.9260   -2.0230 C   0  0  0  0  0  0  0  0  0  0  0  0
    5.6050    0.4610   -2.1240 H   0  0  0  0  0  0  0  0  0  0  0  0
    4.6870    1.9140   -2.4890 H   0  0  0  0  0  0  0  0  0  0  0  0
    3.9210    0.3220   -2.6080 H   0  0  0  0  0  0  0  0  0  0  0  0
    4.8550   -2.6070    0.8180 C   0  0  0  0  0  0  0  0  0  0  0  0
    4.8120   -2.3290    1.8790 H   0  0  0  0  0  0  0  0  0  0  0  0
    5.7450   -3.2400    0.7050 H   0  0  0  0  0  0  0  0  0  0  0  0
    3.6000   -3.4290    0.4670 C   0  0  0  0  0  0  0  0  0  0  0  0
    2.7080   -2.8200    0.6570 H   0  0  0  0  0  0  0  0  0  0  0  0
    3.5160   -4.6560    1.3790 C   0  0  0  0  0  0  0  0  0  0  0  0
    4.3750   -5.3200    1.2330 H   0  0  0  0  0  0  0  0  0  0  0  0
    2.6060   -5.2300    1.1760 H   0  0  0  0  0  0  0  0  0  0  0  0
    3.4930   -4.3580    2.4320 H   0  0  0  0  0  0  0  0  0  0  0  0
    3.5790   -3.8700   -0.9960 C   0  0  0  0  0  0  0  0  0  0  0  0
    4.4820   -4.4340   -1.2540 H   0  0  0  0  0  0  0  0  0  0  0  0
    3.5090   -3.0110   -1.6710 H   0  0  0  0  0  0  0  0  0  0  0  0
    2.7120   -4.5090   -1.1970 H   0  0  0  0  0  0  0  0  0  0  0  0
   -2.7120    0.2720    1.7330 H   0  0  0  0  0  0  0  0  0  0  0  0
    1.4610    0.5010    0.9040 H   0  0  0  0  0  0  0  0  0  0  0  0
   -1.2130    1.8690   -1.1360 H   0  0  0  0  0  0  0  0  0  0  0  0
   -0.5980    0.4670    1.4610 H   0  0  0  0  0  0  0  0  0  0  0  0
    3.5360    3.0180   -0.8580 H   0  0  0  0  0  0  0  0  0  0  0  0
   -5.4530   -1.3990    1.5580 H   0  0  0  0  0  0  0  0  0  0  0  0
    5.1390    1.4000   -0.0460 H   0  0  0  0  0  0  0  0  0  0  0  0
  1  3  1  0  0  0  0
  1  6  1  0  0  0  0
  1  8  1  0  0  0  0
  1 41  1  0  0  0  0
  2  4  1  0  0  0  0
  2  7  1  0  0  0  0
  2 17  1  0  0  0  0
  2 45  1  0  0  0  0
  3  5  1  0  0  0  0
  3 14  1  0  0  0  0
  3 77  1  0  0  0  0
  4  5  1  0  0  0  0
  4 11  1  0  0  0  0
  4 78  1  0  0  0  0
  5 23  1  0  0  0  0
  5 79  1  0  0  0  0
  6 20  1  0  0  0  0
  6 37  1  0  0  0  0
  6 80  1  0  0  0  0
  7 29  1  0  0  0  0
  7 32  1  0  0  0  0
  7 76  1  0  0  0  0
  8  9  1  0  0  0  0
  8 10  1  0  0  0  0
  8 11  1  0  0  0  0
 11 12  1  0  0  0  0
 11 13  1  0  0  0  0
 14 15  1  0  0  0  0
 14 16  1  0  0  0  0
 14 20  1  0  0  0  0
 17 18  1  0  0  0  0
 17 19  1  0  0  0  0
 17 38  1  0  0  0  0
 20 21  1  0  0  0  0
 20 22  1  0  0  0  0
 23 24  1  0  0  0  0
 23 25  1  0  0  0  0
 23 32  1  0  0  0  0
 26 27  1  0  0  0  0
 26 36  2  0  0  0  0
 26 52  1  0  0  0  0
 27 28  1  0  0  0  0
 27 35  1  0  0  0  0
 29 30  1  0  0  0  0
 29 31  1  0  0  0  0
 29 35  1  0  0  0  0
 32 33  1  0  0  0  0
 32 34  1  0  0  0  0
 35 38  1  0  0  0  0
 35 81  1  0  0  0  0
 37 56  1  0  0  0  0
 37 59  1  0  0  0  0
 37 82  1  0  0  0  0
 38 39  1  0  0  0  0
 38 40  1  0  0  0  0
 41 42  1  0  0  0  0
 41 43  1  0  0  0  0
 41 44  1  0  0  0  0
 45 46  1  0  0  0  0
 45 47  1  0  0  0  0
 45 48  1  0  0  0  0
 49 50  1  0  0  0  0
 49 51  1  0  0  0  0
 49 56  1  0  0  0  0
 49 63  1  0  0  0  0
 52 53  1  0  0  0  0
 52 54  1  0  0  0  0
 52 55  1  0  0  0  0
 56 57  1  0  0  0  0
 56 58  1  0  0  0  0
 59 60  1  0  0  0  0
 59 61  1  0  0  0  0
 59 62  1  0  0  0  0
 63 64  1  0  0  0  0
 63 65  1  0  0  0  0
 63 66  1  0  0  0  0
 66 67  1  0  0  0  0
 66 68  1  0  0  0  0
 66 72  1  0  0  0  0
 68 69  1  0  0  0  0
 68 70  1  0  0  0  0
 68 71  1  0  0  0  0
 72 73  1  0  0  0  0
 72 74  1  0  0  0  0
 72 75  1  0  0  0  0
M  END
>  <IDNUMBER>
AQ-152/40869875

>  <NAME>
Cholesterol, derivative of

>  <ADD_INFO>
http://www.specs.net/enter.php?specsid=AQ-152/40869875

>  <H_ACCEPTORS>
2

>  <H_DONORS>
1

>  <ROTATABLE_BONDS>
7

>  <LOGP>
8.7600002

>  <LOGS>
-9.8100004

>  <TPSA>
29.1

>  <PRICE>
N05

$$$$
AQ-152/42730348
  MOE2011           3D

 89 92  0  0  1  0  0  0  0  0999 V2000
   -3.6450   -0.2870   -0.7850 C   0  0  1  0  0  0  0  0  0  0  0  0
   -3.2060    1.3170   -0.7780 C   0  0  0  0  0  0  0  0  0  0  0  0
   -2.3310   -0.9880   -0.4180 C   0  0  1  0  0  0  0  0  0  0  0  0
    1.5580    1.3820    0.1750 C   0  0  1  0  0  0  0  0  0  0  0  0
   -3.0500    3.2950   -1.8990 N   0  3  0  0  0  0  0  0  0  0  0  0
   -1.0140    1.3370   -0.0340 C   0  0  3  0  0  0  0  0  0  0  0  0
   -0.9610   -0.1880   -0.1700 C   0  0  3  0  0  0  0  0  0  0  0  0
    0.1860    1.8940    0.7570 C   0  0  3  0  0  0  0  0  0  0  0  0
   -3.4060    1.9990   -1.8780 N   0  0  0  0  0  0  0  0  0  0  0  0
   -2.3870    1.8200    0.3890 C   0  0  0  0  0  0  0  0  0  0  0  0
   -2.4120    2.9080    0.4790 H   0  0  0  0  0  0  0  0  0  0  0  0
   -2.7460    1.4240    1.3360 H   0  0  0  0  0  0  0  0  0  0  0  0
    2.2920    0.6810    1.3830 C   0  0  3  0  0  0  0  0  0  0  0  0
   -4.2880   -1.6180   -0.8190 O   0  0  0  0  0  0  0  0  0  0  0  0
   -5.0590    0.0820   -1.1970 C   0  0  0  0  0  0  0  0  0  0  0  0
   -5.3310    1.0670   -1.5920 H   0  0  0  0  0  0  0  0  0  0  0  0
   -5.7780   -0.5590   -1.7300 H   0  0  0  0  0  0  0  0  0  0  0  0
    1.3460    0.5300   -1.1150 C   0  0  0  0  0  0  0  0  0  0  0  0
    1.1110    1.2210   -1.9390 H   0  0  0  0  0  0  0  0  0  0  0  0
    2.2720    0.0480   -1.4390 H   0  0  0  0  0  0  0  0  0  0  0  0
    0.2210   -0.5230   -1.1050 C   0  0  0  0  0  0  0  0  0  0  0  0
    0.6590   -1.4840   -0.8170 H   0  0  0  0  0  0  0  0  0  0  0  0
   -0.1420   -0.6420   -2.1340 H   0  0  0  0  0  0  0  0  0  0  0  0
   -2.9950   -1.1400    1.1830 C   0  0  0  0  0  0  0  0  0  0  0  0
   -2.8370   -2.1710    1.5270 H   0  0  0  0  0  0  0  0  0  0  0  0
   -2.4260   -0.5230    1.8860 H   0  0  0  0  0  0  0  0  0  0  0  0
    0.2070    1.5580    2.2490 C   0  0  0  0  0  0  0  0  0  0  0  0
    0.5800    2.4280    2.8040 H   0  0  0  0  0  0  0  0  0  0  0  0
   -0.7750    1.3130    2.6610 H   0  0  0  0  0  0  0  0  0  0  0  0
    1.1900    0.4150    2.4150 C   0  0  0  0  0  0  0  0  0  0  0  0
    0.7140   -0.5550    2.2550 H   0  0  0  0  0  0  0  0  0  0  0  0
    1.5860    0.4070    3.4360 H   0  0  0  0  0  0  0  0  0  0  0  0
   -3.7890    4.1190   -1.3420 O   0  5  0  0  0  0  0  0  0  0  0  0
   -4.4630   -2.4040   -1.9470 C   0  0  0  0  0  0  0  0  0  0  0  0
   -2.0130    3.6110   -2.4980 O   0  0  0  0  0  0  0  0  0  0  0  0
   -7.5650    0.2130    1.5750 C   0  0  0  0  0  0  0  0  0  0  0  0
   -5.4980    0.1340    0.3990 C   0  0  1  0  0  0  0  0  0  0  0  0
   -6.8870   -0.2320    0.4820 O   0  0  0  0  0  0  0  0  0  0  0  0
   -5.0220   -3.4940   -1.8760 O   0  0  0  0  0  0  0  0  0  0  0  0
   -7.1020    0.8980    2.4760 O   0  0  0  0  0  0  0  0  0  0  0  0
    3.1850   -0.5660    1.0970 C   0  0  1  0  0  0  0  0  0  0  0  0
   -4.5990   -0.7900    1.4300 C   0  0  0  0  0  0  0  0  0  0  0  0
   -4.6780   -0.3420    2.4290 H   0  0  0  0  0  0  0  0  0  0  0  0
   -5.1160   -1.7570    1.5240 H   0  0  0  0  0  0  0  0  0  0  0  0
   -1.9030   -2.4430   -0.7930 C   0  0  0  0  0  0  0  0  0  0  0  0
   -1.0210   -2.7480   -0.2170 H   0  0  0  0  0  0  0  0  0  0  0  0
   -1.6480   -2.5230   -1.8530 H   0  0  0  0  0  0  0  0  0  0  0  0
   -2.6350   -3.2150   -0.5390 H   0  0  0  0  0  0  0  0  0  0  0  0
    2.3800    2.6330   -0.2360 C   0  0  0  0  0  0  0  0  0  0  0  0
    3.3560    2.3670   -0.6480 H   0  0  0  0  0  0  0  0  0  0  0  0
    2.5490    3.2980    0.6180 H   0  0  0  0  0  0  0  0  0  0  0  0
    1.8520    3.2160   -1.0000 H   0  0  0  0  0  0  0  0  0  0  0  0
    5.2930   -1.3800   -0.1560 C   0  0  0  0  0  0  0  0  0  0  0  0
    5.7560   -1.8840    0.6980 H   0  0  0  0  0  0  0  0  0  0  0  0
    4.6280   -2.1150   -0.6280 H   0  0  0  0  0  0  0  0  0  0  0  0
   -3.9800   -1.8370   -3.2580 C   0  0  0  0  0  0  0  0  0  0  0  0
   -3.1150   -1.1830   -3.1400 H   0  0  0  0  0  0  0  0  0  0  0  0
   -4.7900   -1.2930   -3.7480 H   0  0  0  0  0  0  0  0  0  0  0  0
   -3.6660   -2.6660   -3.9000 H   0  0  0  0  0  0  0  0  0  0  0  0
   -8.9850   -0.2610    1.5190 C   0  0  0  0  0  0  0  0  0  0  0  0
   -9.4720    0.1340    0.6240 H   0  0  0  0  0  0  0  0  0  0  0  0
   -9.5240    0.1030    2.3980 H   0  0  0  0  0  0  0  0  0  0  0  0
   -9.0110   -1.3540    1.5220 H   0  0  0  0  0  0  0  0  0  0  0  0
    4.4620   -0.1780    0.3100 C   0  0  0  0  0  0  0  0  0  0  0  0
    4.1950    0.3980   -0.5770 H   0  0  0  0  0  0  0  0  0  0  0  0
    5.0810    0.4790    0.9340 H   0  0  0  0  0  0  0  0  0  0  0  0
    3.5840   -1.2820    2.4010 C   0  0  0  0  0  0  0  0  0  0  0  0
    4.1950   -2.1680    2.2060 H   0  0  0  0  0  0  0  0  0  0  0  0
    2.7080   -1.6410    2.9500 H   0  0  0  0  0  0  0  0  0  0  0  0
    4.1510   -0.6150    3.0600 H   0  0  0  0  0  0  0  0  0  0  0  0
    6.3800   -1.0070   -1.1730 C   0  0  0  0  0  0  0  0  0  0  0  0
    5.8890   -0.6240   -2.0780 H   0  0  0  0  0  0  0  0  0  0  0  0
    6.8960   -1.9280   -1.4730 H   0  0  0  0  0  0  0  0  0  0  0  0
    7.4180    0.0260   -0.6950 C   0  0  0  0  0  0  0  0  0  0  0  0
    6.9070    0.9650   -0.4530 H   0  0  0  0  0  0  0  0  0  0  0  0
    8.1760   -0.4430    0.5480 C   0  0  0  0  0  0  0  0  0  0  0  0
    8.6600   -1.4100    0.3760 H   0  0  0  0  0  0  0  0  0  0  0  0
    7.5080   -0.5430    1.4080 H   0  0  0  0  0  0  0  0  0  0  0  0
    8.9530    0.2790    0.8240 H   0  0  0  0  0  0  0  0  0  0  0  0
    8.4090    0.3220   -1.8240 C   0  0  0  0  0  0  0  0  0  0  0  0
    8.9660   -0.5760   -2.1110 H   0  0  0  0  0  0  0  0  0  0  0  0
    9.1310    1.0860   -1.5170 H   0  0  0  0  0  0  0  0  0  0  0  0
    7.8860    0.6960   -2.7110 H   0  0  0  0  0  0  0  0  0  0  0  0
   -0.8700    1.7420   -1.0470 H   0  0  0  0  0  0  0  0  0  0  0  0
   -0.6310   -0.5780    0.7940 H   0  0  0  0  0  0  0  0  0  0  0  0
    0.1210    2.9880    0.6740 H   0  0  0  0  0  0  0  0  0  0  0  0
    2.9510    1.4270    1.8530 H   0  0  0  0  0  0  0  0  0  0  0  0
   -5.3850    1.1800    0.7180 H   0  0  0  0  0  0  0  0  0  0  0  0
    2.6090   -1.2860    0.5060 H   0  0  0  0  0  0  0  0  0  0  0  0
  1  2  1  0  0  0  0
  1  3  1  0  0  0  0
  1 14  1  0  0  0  0
  1 15  1  0  0  0  0
  2  9  2  0  0  0  0
  2 10  1  0  0  0  0
  3  7  1  0  0  0  0
  3 24  1  0  0  0  0
  3 45  1  0  0  0  0
  4  8  1  0  0  0  0
  4 13  1  0  0  0  0
  4 18  1  0  0  0  0
  4 49  1  0  0  0  0
  5  9  1  0  0  0  0
  5 33  1  0  0  0  0
  5 35  2  0  0  0  0
  6  7  1  0  0  0  0
  6  8  1  0  0  0  0
  6 10  1  0  0  0  0
  6 84  1  0  0  0  0
  7 21  1  0  0  0  0
  7 85  1  0  0  0  0
  8 27  1  0  0  0  0
  8 86  1  0  0  0  0
 10 11  1  0  0  0  0
 10 12  1  0  0  0  0
 13 30  1  0  0  0  0
 13 41  1  0  0  0  0
 13 87  1  0  0  0  0
 14 34  1  0  0  0  0
 15 16  1  0  0  0  0
 15 17  1  0  0  0  0
 15 37  1  0  0  0  0
 18 19  1  0  0  0  0
 18 20  1  0  0  0  0
 18 21  1  0  0  0  0
 21 22  1  0  0  0  0
 21 23  1  0  0  0  0
 24 25  1  0  0  0  0
 24 26  1  0  0  0  0
 24 42  1  0  0  0  0
 27 28  1  0  0  0  0
 27 29  1  0  0  0  0
 27 30  1  0  0  0  0
 30 31  1  0  0  0  0
 30 32  1  0  0  0  0
 34 39  2  0  0  0  0
 34 56  1  0  0  0  0
 36 38  1  0  0  0  0
 36 40  2  0  0  0  0
 36 60  1  0  0  0  0
 37 38  1  0  0  0  0
 37 42  1  0  0  0  0
 37 88  1  0  0  0  0
 41 64  1  0  0  0  0
 41 67  1  0  0  0  0
 41 89  1  0  0  0  0
 42 43  1  0  0  0  0
 42 44  1  0  0  0  0
 45 46  1  0  0  0  0
 45 47  1  0  0  0  0
 45 48  1  0  0  0  0
 49 50  1  0  0  0  0
 49 51  1  0  0  0  0
 49 52  1  0  0  0  0
 53 54  1  0  0  0  0
 53 55  1  0  0  0  0
 53 64  1  0  0  0  0
 53 71  1  0  0  0  0
 56 57  1  0  0  0  0
 56 58  1  0  0  0  0
 56 59  1  0  0  0  0
 60 61  1  0  0  0  0
 60 62  1  0  0  0  0
 60 63  1  0  0  0  0
 64 65  1  0  0  0  0
 64 66  1  0  0  0  0
 67 68  1  0  0  0  0
 67 69  1  0  0  0  0
 67 70  1  0  0  0  0
 71 72  1  0  0  0  0
 71 73  1  0  0  0  0
 71 74  1  0  0  0  0
 74 75  1  0  0  0  0
 74 76  1  0  0  0  0
 74 80  1  0  0  0  0
 76 77  1  0  0  0  0
 76 78  1  0  0  0  0
 76 79  1  0  0  0  0
 80 81  1  0  0  0  0
 80 82  1  0  0  0  0
 80 83  1  0  0  0  0
M  CHG  1   5   1
M  CHG  1  33  -1
M  END
>  <IDNUMBER>
AQ-152/42730348

>  <NAME>
Guggulsterol IV, derivative of

>  <ADD_INFO>
http://www.specs.net/enter.php?specsid=AQ-152/42730348

>  <H_ACCEPTORS>
5

>  <H_DONORS>
0

>  <ROTATABLE_BONDS>
10

>  <LOGP>
9.8000002

>  <LOGS>
-11.56

>  <TPSA>
108.1

>  <PRICE>
N05

$$$$
AQ-152/42730351
  MOE2011           3D

 89 92  0  0  1  0  0  0  0  0999 V2000
   -4.0040   -0.3220   -0.2930 C   0  0  2  0  0  0  0  0  0  0  0  0
   -3.1660   -1.5780    0.1970 C   0  0  1  0  0  0  0  0  0  0  0  0
    1.1550   -0.5260   -0.0330 C   0  0  1  0  0  0  0  0  0  0  0  0
   -1.2510    0.0530    0.8420 C   0  0  3  0  0  0  0  0  0  0  0  0
   -1.6310   -1.2450    0.0840 C   0  0  3  0  0  0  0  0  0  0  0  0
    0.2720    0.2010    1.0050 C   0  0  3  0  0  0  0  0  0  0  0  0
   -3.5260    1.0040    0.4020 C   0  0  1  0  0  0  0  0  0  0  0  0
   -5.5400   -0.5790   -0.1070 C   0  0  3  0  0  0  0  0  0  0  0  0
   -2.0100    1.2330    0.2510 C   0  0  0  0  0  0  0  0  0  0  0  0
   -1.7480    1.3950   -0.8010 H   0  0  0  0  0  0  0  0  0  0  0  0
   -1.7370    2.1580    0.7710 H   0  0  0  0  0  0  0  0  0  0  0  0
    2.5690   -0.1610    0.5390 C   0  0  3  0  0  0  0  0  0  0  0  0
   -6.3520    0.5540   -0.5610 N   0  0  0  0  0  0  0  0  0  0  0  0
   -5.9840    1.4860   -0.3980 H   0  0  0  0  0  0  0  0  0  0  0  0
    0.8060   -2.0360    0.0130 C   0  0  0  0  0  0  0  0  0  0  0  0
    0.9490   -2.4800   -0.9800 H   0  0  0  0  0  0  0  0  0  0  0  0
    1.4910   -2.5730    0.6810 H   0  0  0  0  0  0  0  0  0  0  0  0
   -0.6390   -2.3570    0.4710 C   0  0  0  0  0  0  0  0  0  0  0  0
   -0.6470   -2.4950    1.5600 H   0  0  0  0  0  0  0  0  0  0  0  0
   -0.9150   -3.3220    0.0380 H   0  0  0  0  0  0  0  0  0  0  0  0
    0.8920    1.5830    1.1350 C   0  0  0  0  0  0  0  0  0  0  0  0
    0.5550    2.2630    0.3450 H   0  0  0  0  0  0  0  0  0  0  0  0
    0.6600    2.0490    2.0980 H   0  0  0  0  0  0  0  0  0  0  0  0
   -4.2140    2.1370   -0.1960 O   0  0  0  0  0  0  0  0  0  0  0  0
    2.3970    1.3240    0.9810 C   0  0  0  0  0  0  0  0  0  0  0  0
    2.9140    1.4980    1.9320 H   0  0  0  0  0  0  0  0  0  0  0  0
    2.8140    2.0210    0.2450 H   0  0  0  0  0  0  0  0  0  0  0  0
   -7.5710    0.5510   -1.1770 C   0  0  0  0  0  0  0  0  0  0  0  0
   -4.2700    3.2800    0.5520 C   0  0  0  0  0  0  0  0  0  0  0  0
   -3.7790   -0.1580   -1.7100 O   0  0  0  0  0  0  0  0  0  0  0  0
   -4.3070    0.6180   -1.9800 H   0  0  0  0  0  0  0  0  0  0  0  0
   -8.1060    1.6150   -1.4850 O   0  0  0  0  0  0  0  0  0  0  0  0
   -3.8450    3.4110    1.6900 O   0  0  0  0  0  0  0  0  0  0  0  0
   -3.5770   -1.9530    1.6480 C   0  0  0  0  0  0  0  0  0  0  0  0
   -3.0670   -2.8720    1.9600 H   0  0  0  0  0  0  0  0  0  0  0  0
   -3.2630   -1.1810    2.3560 H   0  0  0  0  0  0  0  0  0  0  0  0
    3.8300   -0.3740   -0.3490 C   0  0  1  0  0  0  0  0  0  0  0  0
   -3.4440   -2.8060   -0.7220 C   0  0  0  0  0  0  0  0  0  0  0  0
   -2.9900   -3.7180   -0.3210 H   0  0  0  0  0  0  0  0  0  0  0  0
   -3.0420   -2.6520   -1.7290 H   0  0  0  0  0  0  0  0  0  0  0  0
   -4.5080   -3.0270   -0.8310 H   0  0  0  0  0  0  0  0  0  0  0  0
    1.0070    0.0320   -1.4700 C   0  0  0  0  0  0  0  0  0  0  0  0
    1.6130   -0.5420   -2.1790 H   0  0  0  0  0  0  0  0  0  0  0  0
    1.3330    1.0740   -1.5460 H   0  0  0  0  0  0  0  0  0  0  0  0
   -0.0170    0.0030   -1.8410 H   0  0  0  0  0  0  0  0  0  0  0  0
   -5.8880   -0.9470    1.3380 C   0  0  0  0  0  0  0  0  0  0  0  0
   -5.7160   -0.0910    2.0020 H   0  0  0  0  0  0  0  0  0  0  0  0
   -6.9570   -1.1760    1.4230 H   0  0  0  0  0  0  0  0  0  0  0  0
   -5.0840   -2.1470    1.8270 C   0  0  0  0  0  0  0  0  0  0  0  0
   -5.3020   -2.3200    2.8880 H   0  0  0  0  0  0  0  0  0  0  0  0
   -5.4120   -3.0490    1.2970 H   0  0  0  0  0  0  0  0  0  0  0  0
    6.3850    0.0510   -0.4350 C   0  0  0  0  0  0  0  0  0  0  0  0
    6.6490   -0.9820   -0.6860 H   0  0  0  0  0  0  0  0  0  0  0  0
    6.2060    0.5870   -1.3730 H   0  0  0  0  0  0  0  0  0  0  0  0
   -8.2120   -0.7760   -1.4750 C   0  0  0  0  0  0  0  0  0  0  0  0
   -7.6270   -1.3100   -2.2290 H   0  0  0  0  0  0  0  0  0  0  0  0
   -9.2210   -0.6120   -1.8670 H   0  0  0  0  0  0  0  0  0  0  0  0
   -8.2910   -1.3780   -0.5670 H   0  0  0  0  0  0  0  0  0  0  0  0
   -4.9590    4.3590   -0.2260 C   0  0  0  0  0  0  0  0  0  0  0  0
   -4.4390    4.5240   -1.1740 H   0  0  0  0  0  0  0  0  0  0  0  0
   -4.9340    5.2910    0.3470 H   0  0  0  0  0  0  0  0  0  0  0  0
   -6.0010    4.0810   -0.4020 H   0  0  0  0  0  0  0  0  0  0  0  0
    5.1050    0.0810    0.4110 C   0  0  0  0  0  0  0  0  0  0  0  0
    4.9710    1.1080    0.7690 H   0  0  0  0  0  0  0  0  0  0  0  0
    5.2440   -0.5450    1.3020 H   0  0  0  0  0  0  0  0  0  0  0  0
    3.9730   -1.8310   -0.8030 C   0  0  0  0  0  0  0  0  0  0  0  0
    4.8580   -1.9740   -1.4300 H   0  0  0  0  0  0  0  0  0  0  0  0
    3.1260   -2.1490   -1.4130 H   0  0  0  0  0  0  0  0  0  0  0  0
    4.0530   -2.5070    0.0560 H   0  0  0  0  0  0  0  0  0  0  0  0
    7.5570    0.6890    0.3200 C   0  0  0  0  0  0  0  0  0  0  0  0
    7.6540    0.1970    1.2970 H   0  0  0  0  0  0  0  0  0  0  0  0
    7.3300    1.7440    0.5210 H   0  0  0  0  0  0  0  0  0  0  0  0
    8.9000    0.5800   -0.4260 C   0  0  0  0  0  0  0  0  0  0  0  0
    9.1030   -0.4790   -0.6330 H   0  0  0  0  0  0  0  0  0  0  0  0
    8.8910    1.3340   -1.7560 C   0  0  0  0  0  0  0  0  0  0  0  0
    8.6230    2.3870   -1.6140 H   0  0  0  0  0  0  0  0  0  0  0  0
    8.1800    0.8930   -2.4610 H   0  0  0  0  0  0  0  0  0  0  0  0
    9.8780    1.2980   -2.2290 H   0  0  0  0  0  0  0  0  0  0  0  0
   10.0300    1.1090    0.4610 C   0  0  0  0  0  0  0  0  0  0  0  0
    9.8840    2.1670    0.7020 H   0  0  0  0  0  0  0  0  0  0  0  0
   10.9980    1.0040   -0.0390 H   0  0  0  0  0  0  0  0  0  0  0  0
   10.0800    0.5500    1.4020 H   0  0  0  0  0  0  0  0  0  0  0  0
   -1.6090   -0.0340    1.8760 H   0  0  0  0  0  0  0  0  0  0  0  0
   -1.4710   -1.0740   -0.9860 H   0  0  0  0  0  0  0  0  0  0  0  0
    0.4810   -0.2910    1.9730 H   0  0  0  0  0  0  0  0  0  0  0  0
   -3.7800    0.9600    1.4670 H   0  0  0  0  0  0  0  0  0  0  0  0
   -5.8270   -1.4130   -0.7530 H   0  0  0  0  0  0  0  0  0  0  0  0
    2.7200   -0.7490    1.4570 H   0  0  0  0  0  0  0  0  0  0  0  0
    3.7410    0.2520   -1.2460 H   0  0  0  0  0  0  0  0  0  0  0  0
  1  2  1  0  0  0  0
  1  7  1  0  0  0  0
  1  8  1  0  0  0  0
  1 30  1  0  0  0  0
  2  5  1  0  0  0  0
  2 34  1  0  0  0  0
  2 38  1  0  0  0  0
  3  6  1  0  0  0  0
  3 12  1  0  0  0  0
  3 15  1  0  0  0  0
  3 42  1  0  0  0  0
  4  5  1  0  0  0  0
  4  6  1  0  0  0  0
  4  9  1  0  0  0  0
  4 83  1  0  0  0  0
  5 18  1  0  0  0  0
  5 84  1  0  0  0  0
  6 21  1  0  0  0  0
  6 85  1  0  0  0  0
  7  9  1  0  0  0  0
  7 24  1  0  0  0  0
  7 86  1  0  0  0  0
  8 13  1  0  0  0  0
  8 46  1  0  0  0  0
  8 87  1  0  0  0  0
  9 10  1  0  0  0  0
  9 11  1  0  0  0  0
 12 25  1  0  0  0  0
 12 37  1  0  0  0  0
 12 88  1  0  0  0  0
 13 14  1  0  0  0  0
 13 28  1  0  0  0  0
 15 16  1  0  0  0  0
 15 17  1  0  0  0  0
 15 18  1  0  0  0  0
 18 19  1  0  0  0  0
 18 20  1  0  0  0  0
 21 22  1  0  0  0  0
 21 23  1  0  0  0  0
 21 25  1  0  0  0  0
 24 29  1  0  0  0  0
 25 26  1  0  0  0  0
 25 27  1  0  0  0  0
 28 32  2  0  0  0  0
 28 55  1  0  0  0  0
 29 33  2  0  0  0  0
 29 59  1  0  0  0  0
 30 31  1  0  0  0  0
 34 35  1  0  0  0  0
 34 36  1  0  0  0  0
 34 49  1  0  0  0  0
 37 63  1  0  0  0  0
 37 66  1  0  0  0  0
 37 89  1  0  0  0  0
 38 39  1  0  0  0  0
 38 40  1  0  0  0  0
 38 41  1  0  0  0  0
 42 43  1  0  0  0  0
 42 44  1  0  0  0  0
 42 45  1  0  0  0  0
 46 47  1  0  0  0  0
 46 48  1  0  0  0  0
 46 49  1  0  0  0  0
 49 50  1  0  0  0  0
 49 51  1  0  0  0  0
 52 53  1  0  0  0  0
 52 54  1  0  0  0  0
 52 63  1  0  0  0  0
 52 70  1  0  0  0  0
 55 56  1  0  0  0  0
 55 57  1  0  0  0  0
 55 58  1  0  0  0  0
 59 60  1  0  0  0  0
 59 61  1  0  0  0  0
 59 62  1  0  0  0  0
 63 64  1  0  0  0  0
 63 65  1  0  0  0  0
 66 67  1  0  0  0  0
 66 68  1  0  0  0  0
 66 69  1  0  0  0  0
 70 71  1  0  0  0  0
 70 72  1  0  0  0  0
 70 73  1  0  0  0  0
 73 74  1  0  0  0  0
 73 75  1  0  0  0  0
 73 79  1  0  0  0  0
 75 76  1  0  0  0  0
 75 77  1  0  0  0  0
 75 78  1  0  0  0  0
 79 80  1  0  0  0  0
 79 81  1  0  0  0  0
 79 82  1  0  0  0  0
M  END
>  <IDNUMBER>
AQ-152/42730351

>  <NAME>
Cholest-4-ene-3,6-diol, derivative of

>  <ADD_INFO>
http://www.specs.net/enter.php?specsid=AQ-152/42730351

>  <H_ACCEPTORS>
5

>  <H_DONORS>
2

>  <ROTATABLE_BONDS>
9

>  <LOGP>
6.7199998

>  <LOGS>
-8.6099997

>  <TPSA>
75.629997

>  <PRICE>
N05

$$$$
AQ-152/42730356
  MOE2011           3D

 86 90  0  0  1  0  0  0  0  0999 V2000
   -3.8640    0.2720    0.5200 C   0  0  1  0  0  0  0  0  0  0  0  0
   -5.2250   -0.2190    0.9930 C   0  0  2  0  0  0  0  0  0  0  0  0
   -4.0230   -0.4720    1.7420 O   0  0  0  0  0  0  0  0  0  0  0  0
   -3.1310   -0.4930   -0.5910 C   0  0  1  0  0  0  0  0  0  0  0  0
    1.2600    0.3340   -0.7960 C   0  0  1  0  0  0  0  0  0  0  0  0
   -1.0900    1.0210   -0.0320 C   0  0  3  0  0  0  0  0  0  0  0  0
   -3.4110    1.6850    0.8230 C   0  0  1  0  0  0  0  0  0  0  0  0
   -1.5920   -0.4430   -0.2750 C   0  0  3  0  0  0  0  0  0  0  0  0
    0.4060    0.9760    0.3140 C   0  0  3  0  0  0  0  0  0  0  0  0
   -1.9000    1.7020    1.0880 C   0  0  0  0  0  0  0  0  0  0  0  0
   -1.5600    2.7380    1.1950 H   0  0  0  0  0  0  0  0  0  0  0  0
   -1.6990    1.1940    2.0390 H   0  0  0  0  0  0  0  0  0  0  0  0
   -5.8560   -1.4980    0.5230 C   0  0  1  0  0  0  0  0  0  0  0  0
    2.7130    0.5720   -0.2710 C   0  0  3  0  0  0  0  0  0  0  0  0
   -3.6290   -1.9740   -0.6250 C   0  0  0  0  0  0  0  0  0  0  0  0
   -3.2050   -2.4990   -1.4890 H   0  0  0  0  0  0  0  0  0  0  0  0
   -3.2820   -2.5130    0.2660 H   0  0  0  0  0  0  0  0  0  0  0  0
    0.7930   -1.1130   -1.0070 C   0  0  0  0  0  0  0  0  0  0  0  0
    1.3550   -1.5830   -1.8240 H   0  0  0  0  0  0  0  0  0  0  0  0
    0.9800   -1.7230   -0.1200 H   0  0  0  0  0  0  0  0  0  0  0  0
   -0.7150   -1.1940   -1.3090 C   0  0  0  0  0  0  0  0  0  0  0  0
   -0.9890   -2.2540   -1.3290 H   0  0  0  0  0  0  0  0  0  0  0  0
   -0.9030   -0.8130   -2.3180 H   0  0  0  0  0  0  0  0  0  0  0  0
    1.1250    2.2860    0.6030 C   0  0  0  0  0  0  0  0  0  0  0  0
    0.8570    3.0630   -0.1200 H   0  0  0  0  0  0  0  0  0  0  0  0
    0.8920    2.6730    1.6010 H   0  0  0  0  0  0  0  0  0  0  0  0
   -3.7350    2.5400   -0.2960 O   0  0  0  0  0  0  0  0  0  0  0  0
    2.6150    1.9270    0.4870 C   0  0  0  0  0  0  0  0  0  0  0  0
    3.0720    1.8870    1.4800 H   0  0  0  0  0  0  0  0  0  0  0  0
    3.1430    2.7140   -0.0650 H   0  0  0  0  0  0  0  0  0  0  0  0
   -7.2320   -1.2240    0.1940 O   0  0  0  0  0  0  0  0  0  0  0  0
   -3.9430    3.8740   -0.1960 C   0  0  0  0  0  0  0  0  0  0  0  0
   -8.0920   -2.2770    0.2670 C   0  0  0  0  0  0  0  0  0  0  0  0
   -5.1540   -2.0820   -0.7060 C   0  0  0  0  0  0  0  0  0  0  0  0
   -5.4350   -3.1370   -0.8110 H   0  0  0  0  0  0  0  0  0  0  0  0
   -5.5260   -1.6010   -1.6190 H   0  0  0  0  0  0  0  0  0  0  0  0
   -7.8020   -3.4210    0.5860 O   0  0  0  0  0  0  0  0  0  0  0  0
   -4.0120    4.5810   -1.1980 O   0  0  0  0  0  0  0  0  0  0  0  0
   -3.4490    0.1370   -1.9700 C   0  0  0  0  0  0  0  0  0  0  0  0
   -3.1700   -0.5320   -2.7920 H   0  0  0  0  0  0  0  0  0  0  0  0
   -2.9200    1.0780   -2.1410 H   0  0  0  0  0  0  0  0  0  0  0  0
   -4.5170    0.3590   -2.0730 H   0  0  0  0  0  0  0  0  0  0  0  0
    3.4180   -0.5590    0.5380 C   0  0  1  0  0  0  0  0  0  0  0  0
    1.1460    1.0820   -2.1610 C   0  0  0  0  0  0  0  0  0  0  0  0
    1.7630    0.5820   -2.9180 H   0  0  0  0  0  0  0  0  0  0  0  0
    1.4960    2.1180   -2.1020 H   0  0  0  0  0  0  0  0  0  0  0  0
    0.1260    1.1140   -2.5520 H   0  0  0  0  0  0  0  0  0  0  0  0
    5.7610   -0.1370   -0.4960 C   0  0  0  0  0  0  0  0  0  0  0  0
    5.5720   -0.9860   -1.1620 H   0  0  0  0  0  0  0  0  0  0  0  0
    5.4500    0.7610   -1.0420 H   0  0  0  0  0  0  0  0  0  0  0  0
   -9.4720   -1.8290   -0.1040 C   0  0  0  0  0  0  0  0  0  0  0  0
   -9.8180   -1.0700    0.6020 H   0  0  0  0  0  0  0  0  0  0  0  0
  -10.1540   -2.6840   -0.0600 H   0  0  0  0  0  0  0  0  0  0  0  0
   -9.4730   -1.4360   -1.1240 H   0  0  0  0  0  0  0  0  0  0  0  0
   -4.1160    4.4470    1.1790 C   0  0  0  0  0  0  0  0  0  0  0  0
   -3.2150    4.3080    1.7790 H   0  0  0  0  0  0  0  0  0  0  0  0
   -4.9920    4.0090    1.6630 H   0  0  0  0  0  0  0  0  0  0  0  0
   -4.2910    5.5250    1.0940 H   0  0  0  0  0  0  0  0  0  0  0  0
    4.9270   -0.2740    0.7820 C   0  0  0  0  0  0  0  0  0  0  0  0
    5.0480    0.6300    1.3920 H   0  0  0  0  0  0  0  0  0  0  0  0
    5.3290   -1.1020    1.3760 H   0  0  0  0  0  0  0  0  0  0  0  0
    2.7840   -0.8850    1.8990 C   0  0  0  0  0  0  0  0  0  0  0  0
    3.3430   -1.6850    2.4000 H   0  0  0  0  0  0  0  0  0  0  0  0
    1.7590   -1.2470    1.8060 H   0  0  0  0  0  0  0  0  0  0  0  0
    2.7820   -0.0220    2.5710 H   0  0  0  0  0  0  0  0  0  0  0  0
    7.2670    0.0050   -0.2330 C   0  0  0  0  0  0  0  0  0  0  0  0
    7.4310    0.9050    0.3740 H   0  0  0  0  0  0  0  0  0  0  0  0
    7.7600    0.1920   -1.1960 H   0  0  0  0  0  0  0  0  0  0  0  0
    7.9530   -1.1920    0.4540 C   0  0  0  0  0  0  0  0  0  0  0  0
    7.5280   -1.3280    1.4550 H   0  0  0  0  0  0  0  0  0  0  0  0
    9.4460   -0.8970    0.6340 C   0  0  0  0  0  0  0  0  0  0  0  0
    9.9440   -0.7620   -0.3320 H   0  0  0  0  0  0  0  0  0  0  0  0
    9.9450   -1.7180    1.1600 H   0  0  0  0  0  0  0  0  0  0  0  0
    9.5940    0.0150    1.2240 H   0  0  0  0  0  0  0  0  0  0  0  0
    7.7750   -2.4960   -0.3250 C   0  0  0  0  0  0  0  0  0  0  0  0
    8.1260   -2.3930   -1.3570 H   0  0  0  0  0  0  0  0  0  0  0  0
    6.7240   -2.8030   -0.3500 H   0  0  0  0  0  0  0  0  0  0  0  0
    8.3390   -3.3100    0.1440 H   0  0  0  0  0  0  0  0  0  0  0  0
   -5.9300    0.4790    1.4240 H   0  0  0  0  0  0  0  0  0  0  0  0
   -1.2250    1.6180   -0.9390 H   0  0  0  0  0  0  0  0  0  0  0  0
   -3.9350    2.0350    1.7180 H   0  0  0  0  0  0  0  0  0  0  0  0
   -1.4510   -0.9750    0.6800 H   0  0  0  0  0  0  0  0  0  0  0  0
    0.4880    0.3730    1.2270 H   0  0  0  0  0  0  0  0  0  0  0  0
   -5.8140   -2.2140    1.3550 H   0  0  0  0  0  0  0  0  0  0  0  0
    3.3410    0.7360   -1.1550 H   0  0  0  0  0  0  0  0  0  0  0  0
    3.3700   -1.4750   -0.0670 H   0  0  0  0  0  0  0  0  0  0  0  0
  1  2  1  0  0  0  0
  1  3  1  0  0  0  0
  1  4  1  0  0  0  0
  1  7  1  0  0  0  0
  2  3  1  0  0  0  0
  2 13  1  0  0  0  0
  2 79  1  0  0  0  0
  4  8  1  0  0  0  0
  4 15  1  0  0  0  0
  4 39  1  0  0  0  0
  5  9  1  0  0  0  0
  5 14  1  0  0  0  0
  5 18  1  0  0  0  0
  5 44  1  0  0  0  0
  6  8  1  0  0  0  0
  6  9  1  0  0  0  0
  6 10  1  0  0  0  0
  6 80  1  0  0  0  0
  7 10  1  0  0  0  0
  7 27  1  0  0  0  0
  7 81  1  0  0  0  0
  8 21  1  0  0  0  0
  8 82  1  0  0  0  0
  9 24  1  0  0  0  0
  9 83  1  0  0  0  0
 10 11  1  0  0  0  0
 10 12  1  0  0  0  0
 13 31  1  0  0  0  0
 13 34  1  0  0  0  0
 13 84  1  0  0  0  0
 14 28  1  0  0  0  0
 14 43  1  0  0  0  0
 14 85  1  0  0  0  0
 15 16  1  0  0  0  0
 15 17  1  0  0  0  0
 15 34  1  0  0  0  0
 18 19  1  0  0  0  0
 18 20  1  0  0  0  0
 18 21  1  0  0  0  0
 21 22  1  0  0  0  0
 21 23  1  0  0  0  0
 24 25  1  0  0  0  0
 24 26  1  0  0  0  0
 24 28  1  0  0  0  0
 27 32  1  0  0  0  0
 28 29  1  0  0  0  0
 28 30  1  0  0  0  0
 31 33  1  0  0  0  0
 32 38  2  0  0  0  0
 32 55  1  0  0  0  0
 33 37  2  0  0  0  0
 33 51  1  0  0  0  0
 34 35  1  0  0  0  0
 34 36  1  0  0  0  0
 39 40  1  0  0  0  0
 39 41  1  0  0  0  0
 39 42  1  0  0  0  0
 43 59  1  0  0  0  0
 43 62  1  0  0  0  0
 43 86  1  0  0  0  0
 44 45  1  0  0  0  0
 44 46  1  0  0  0  0
 44 47  1  0  0  0  0
 48 49  1  0  0  0  0
 48 50  1  0  0  0  0
 48 59  1  0  0  0  0
 48 66  1  0  0  0  0
 51 52  1  0  0  0  0
 51 53  1  0  0  0  0
 51 54  1  0  0  0  0
 55 56  1  0  0  0  0
 55 57  1  0  0  0  0
 55 58  1  0  0  0  0
 59 60  1  0  0  0  0
 59 61  1  0  0  0  0
 62 63  1  0  0  0  0
 62 64  1  0  0  0  0
 62 65  1  0  0  0  0
 66 67  1  0  0  0  0
 66 68  1  0  0  0  0
 66 69  1  0  0  0  0
 69 70  1  0  0  0  0
 69 71  1  0  0  0  0
 69 75  1  0  0  0  0
 71 72  1  0  0  0  0
 71 73  1  0  0  0  0
 71 74  1  0  0  0  0
 75 76  1  0  0  0  0
 75 77  1  0  0  0  0
 75 78  1  0  0  0  0
M  END
>  <IDNUMBER>
AQ-152/42730356

>  <NAME>
Cholestane-3,5,6-triol, derivative of

>  <ADD_INFO>
http://www.specs.net/enter.php?specsid=AQ-152/42730356

>  <H_ACCEPTORS>
5

>  <H_DONORS>
0

>  <ROTATABLE_BONDS>
9

>  <LOGP>
7.8200002

>  <LOGS>
-9.54

>  <TPSA>
65.129997

>  <PRICE>
N05

$$$$
AQ-152/42730357
  MOE2011           3D

 83 86  0  0  1  0  0  0  0  0999 V2000
   -4.2080    0.1540   -1.1130 C   0  0  2  0  0  0  0  0  0  0  0  0
   -3.1230   -0.8850   -0.6650 C   0  0  1  0  0  0  0  0  0  0  0  0
    1.1470    0.5970   -0.6930 C   0  0  1  0  0  0  0  0  0  0  0  0
   -1.4170    1.0820   -0.3360 C   0  0  3  0  0  0  0  0  0  0  0  0
   -3.8760    1.5450   -0.5310 C   0  0  0  0  0  0  0  0  0  0  0  0
   -1.6640   -0.3220   -0.9380 C   0  0  3  0  0  0  0  0  0  0  0  0
   -0.0140    1.6410   -0.7120 C   0  0  3  0  0  0  0  0  0  0  0  0
   -2.4860    2.0740   -0.8140 C   0  0  0  0  0  0  0  0  0  0  0  0
   -2.4120    2.2290   -1.8980 H   0  0  0  0  0  0  0  0  0  0  0  0
   -2.3250    3.0500   -0.3510 H   0  0  0  0  0  0  0  0  0  0  0  0
    2.3210    1.3660   -0.0040 C   0  0  3  0  0  0  0  0  0  0  0  0
    0.7000   -0.6670    0.0540 C   0  0  0  0  0  0  0  0  0  0  0  0
    1.5020   -1.4140    0.0740 H   0  0  0  0  0  0  0  0  0  0  0  0
    0.4720   -0.4250    1.0990 H   0  0  0  0  0  0  0  0  0  0  0  0
   -5.6420   -0.3050   -0.7770 C   0  0  0  0  0  0  0  0  0  0  0  0
   -6.3660    0.4760   -1.0460 H   0  0  0  0  0  0  0  0  0  0  0  0
   -5.9330   -1.1410   -1.4270 H   0  0  0  0  0  0  0  0  0  0  0  0
   -0.5440   -1.3180   -0.5490 C   0  0  0  0  0  0  0  0  0  0  0  0
   -0.8850   -2.0730    0.1620 H   0  0  0  0  0  0  0  0  0  0  0  0
   -0.2590   -1.8860   -1.4440 H   0  0  0  0  0  0  0  0  0  0  0  0
   -3.3530   -1.2100    0.8410 C   0  0  0  0  0  0  0  0  0  0  0  0
   -2.6630   -1.9850    1.1890 H   0  0  0  0  0  0  0  0  0  0  0  0
   -3.1520   -0.3250    1.4560 H   0  0  0  0  0  0  0  0  0  0  0  0
    0.4160    2.7760    0.2460 C   0  0  0  0  0  0  0  0  0  0  0  0
    0.7250    3.6470   -0.3450 H   0  0  0  0  0  0  0  0  0  0  0  0
   -0.3760    3.1110    0.9240 H   0  0  0  0  0  0  0  0  0  0  0  0
    1.6090    2.2430    1.0240 C   0  0  0  0  0  0  0  0  0  0  0  0
    1.2550    1.6670    1.8860 H   0  0  0  0  0  0  0  0  0  0  0  0
    2.2450    3.0540    1.3930 H   0  0  0  0  0  0  0  0  0  0  0  0
   -4.7960    2.1980    0.1170 N   0  0  0  0  0  0  0  0  0  0  0  0
   -8.2010   -0.5470    0.9880 C   0  0  0  0  0  0  0  0  0  0  0  0
   -5.8360   -0.7020    0.6890 C   0  0  1  0  0  0  0  0  0  0  0  0
   -7.1140   -1.3540    0.8470 O   0  0  0  0  0  0  0  0  0  0  0  0
   -4.1390    0.3280   -2.5360 O   0  0  0  0  0  0  0  0  0  0  0  0
   -4.8740    0.9090   -2.8010 H   0  0  0  0  0  0  0  0  0  0  0  0
   -8.1960    0.6750    0.9940 O   0  0  0  0  0  0  0  0  0  0  0  0
    3.5250    0.5340    0.5250 C   0  0  1  0  0  0  0  0  0  0  0  0
   -4.7700   -1.6920    1.1480 C   0  0  0  0  0  0  0  0  0  0  0  0
   -4.8740   -1.8570    2.2280 H   0  0  0  0  0  0  0  0  0  0  0  0
   -4.9470   -2.6760    0.6950 H   0  0  0  0  0  0  0  0  0  0  0  0
   -3.2660   -2.1940   -1.4970 C   0  0  0  0  0  0  0  0  0  0  0  0
   -2.6120   -2.9850   -1.1160 H   0  0  0  0  0  0  0  0  0  0  0  0
   -3.0010   -2.0280   -2.5470 H   0  0  0  0  0  0  0  0  0  0  0  0
   -4.2820   -2.5960   -1.4830 H   0  0  0  0  0  0  0  0  0  0  0  0
    1.5680    0.2280   -2.1330 C   0  0  0  0  0  0  0  0  0  0  0  0
    2.3620   -0.5260   -2.1330 H   0  0  0  0  0  0  0  0  0  0  0  0
    1.9440    1.1030   -2.6750 H   0  0  0  0  0  0  0  0  0  0  0  0
    0.7320   -0.1680   -2.7170 H   0  0  0  0  0  0  0  0  0  0  0  0
   -4.3570    3.4440    0.5630 O   0  0  0  0  0  0  0  0  0  0  0  0
   -5.1510    3.7910    1.0100 H   0  0  0  0  0  0  0  0  0  0  0  0
    6.1290    0.7000    0.8250 C   0  0  0  0  0  0  0  0  0  0  0  0
    6.9310    1.4370    0.6990 H   0  0  0  0  0  0  0  0  0  0  0  0
    6.1030    0.4580    1.8930 H   0  0  0  0  0  0  0  0  0  0  0  0
   -9.4340   -1.3850    1.1390 C   0  0  0  0  0  0  0  0  0  0  0  0
   -9.3520   -2.0070    2.0340 H   0  0  0  0  0  0  0  0  0  0  0  0
   -9.5720   -2.0050    0.2500 H   0  0  0  0  0  0  0  0  0  0  0  0
  -10.3050   -0.7320    1.2470 H   0  0  0  0  0  0  0  0  0  0  0  0
    4.8200    1.3810    0.4010 C   0  0  0  0  0  0  0  0  0  0  0  0
    4.9330    1.7050   -0.6420 H   0  0  0  0  0  0  0  0  0  0  0  0
    4.7060    2.2960    0.9960 H   0  0  0  0  0  0  0  0  0  0  0  0
    3.3660    0.0230    1.9620 C   0  0  0  0  0  0  0  0  0  0  0  0
    4.1540   -0.6950    2.2100 H   0  0  0  0  0  0  0  0  0  0  0  0
    2.4190   -0.4960    2.1180 H   0  0  0  0  0  0  0  0  0  0  0  0
    3.4260    0.8420    2.6870 H   0  0  0  0  0  0  0  0  0  0  0  0
    6.4570   -0.5550    0.0100 C   0  0  0  0  0  0  0  0  0  0  0  0
    6.5050   -0.2960   -1.0550 H   0  0  0  0  0  0  0  0  0  0  0  0
    5.6420   -1.2800    0.1220 H   0  0  0  0  0  0  0  0  0  0  0  0
    7.7680   -1.2410    0.4410 C   0  0  0  0  0  0  0  0  0  0  0  0
    7.7130   -1.4610    1.5150 H   0  0  0  0  0  0  0  0  0  0  0  0
    7.9230   -2.5710   -0.3020 C   0  0  0  0  0  0  0  0  0  0  0  0
    7.9850   -2.4170   -1.3850 H   0  0  0  0  0  0  0  0  0  0  0  0
    7.0730   -3.2320   -0.1010 H   0  0  0  0  0  0  0  0  0  0  0  0
    8.8310   -3.0930    0.0190 H   0  0  0  0  0  0  0  0  0  0  0  0
    8.9970   -0.3660    0.1920 C   0  0  0  0  0  0  0  0  0  0  0  0
    9.0580   -0.0560   -0.8560 H   0  0  0  0  0  0  0  0  0  0  0  0
    9.9160   -0.9100    0.4370 H   0  0  0  0  0  0  0  0  0  0  0  0
    8.9810    0.5330    0.8150 H   0  0  0  0  0  0  0  0  0  0  0  0
   -1.4830    1.0040    0.7570 H   0  0  0  0  0  0  0  0  0  0  0  0
   -1.5830   -0.1950   -2.0280 H   0  0  0  0  0  0  0  0  0  0  0  0
   -0.0820    2.0760   -1.7190 H   0  0  0  0  0  0  0  0  0  0  0  0
    2.7210    2.0550   -0.7650 H   0  0  0  0  0  0  0  0  0  0  0  0
   -5.7930    0.1740    1.3460 H   0  0  0  0  0  0  0  0  0  0  0  0
    3.6390   -0.3350   -0.1330 H   0  0  0  0  0  0  0  0  0  0  0  0
  1  2  1  0  0  0  0
  1  5  1  0  0  0  0
  1 15  1  0  0  0  0
  1 34  1  0  0  0  0
  2  6  1  0  0  0  0
  2 21  1  0  0  0  0
  2 41  1  0  0  0  0
  3  7  1  0  0  0  0
  3 11  1  0  0  0  0
  3 12  1  0  0  0  0
  3 45  1  0  0  0  0
  4  6  1  0  0  0  0
  4  7  1  0  0  0  0
  4  8  1  0  0  0  0
  4 78  1  0  0  0  0
  5  8  1  0  0  0  0
  5 30  2  0  0  0  0
  6 18  1  0  0  0  0
  6 79  1  0  0  0  0
  7 24  1  0  0  0  0
  7 80  1  0  0  0  0
  8  9  1  0  0  0  0
  8 10  1  0  0  0  0
 11 27  1  0  0  0  0
 11 37  1  0  0  0  0
 11 81  1  0  0  0  0
 12 13  1  0  0  0  0
 12 14  1  0  0  0  0
 12 18  1  0  0  0  0
 15 16  1  0  0  0  0
 15 17  1  0  0  0  0
 15 32  1  0  0  0  0
 18 19  1  0  0  0  0
 18 20  1  0  0  0  0
 21 22  1  0  0  0  0
 21 23  1  0  0  0  0
 21 38  1  0  0  0  0
 24 25  1  0  0  0  0
 24 26  1  0  0  0  0
 24 27  1  0  0  0  0
 27 28  1  0  0  0  0
 27 29  1  0  0  0  0
 30 49  1  0  0  0  0
 31 33  1  0  0  0  0
 31 36  2  0  0  0  0
 31 54  1  0  0  0  0
 32 33  1  0  0  0  0
 32 38  1  0  0  0  0
 32 82  1  0  0  0  0
 34 35  1  0  0  0  0
 37 58  1  0  0  0  0
 37 61  1  0  0  0  0
 37 83  1  0  0  0  0
 38 39  1  0  0  0  0
 38 40  1  0  0  0  0
 41 42  1  0  0  0  0
 41 43  1  0  0  0  0
 41 44  1  0  0  0  0
 45 46  1  0  0  0  0
 45 47  1  0  0  0  0
 45 48  1  0  0  0  0
 49 50  1  0  0  0  0
 51 52  1  0  0  0  0
 51 53  1  0  0  0  0
 51 58  1  0  0  0  0
 51 65  1  0  0  0  0
 54 55  1  0  0  0  0
 54 56  1  0  0  0  0
 54 57  1  0  0  0  0
 58 59  1  0  0  0  0
 58 60  1  0  0  0  0
 61 62  1  0  0  0  0
 61 63  1  0  0  0  0
 61 64  1  0  0  0  0
 65 66  1  0  0  0  0
 65 67  1  0  0  0  0
 65 68  1  0  0  0  0
 68 69  1  0  0  0  0
 68 70  1  0  0  0  0
 68 74  1  0  0  0  0
 70 71  1  0  0  0  0
 70 72  1  0  0  0  0
 70 73  1  0  0  0  0
 74 75  1  0  0  0  0
 74 76  1  0  0  0  0
 74 77  1  0  0  0  0
M  END
>  <IDNUMBER>
AQ-152/42730357

>  <NAME>
Guggulsterol IV, derivative of

>  <ADD_INFO>
http://www.specs.net/enter.php?specsid=AQ-152/42730357

>  <H_ACCEPTORS>
3

>  <H_DONORS>
2

>  <ROTATABLE_BONDS>
7

>  <LOGP>
6.0599999

>  <LOGS>
-7.8499999

>  <TPSA>
79.120003

>  <PRICE>
N05

$$$$
AQ-152/42730361
  MOE2011           3D

 93 96  0  0  1  0  0  0  0  0999 V2000
   -3.2890    0.1550    0.0370 C   0  0  2  0  0  0  0  0  0  0  0  0
   -2.7800    0.3460   -1.4530 C   0  0  1  0  0  0  0  0  0  0  0  0
    1.6680    1.1280   -1.3550 C   0  0  1  0  0  0  0  0  0  0  0  0
   -0.6580    1.2150   -0.1380 C   0  0  3  0  0  0  0  0  0  0  0  0
   -1.2170    0.6520   -1.4660 C   0  0  3  0  0  0  0  0  0  0  0  0
    0.6950    1.9310   -0.4070 C   0  0  3  0  0  0  0  0  0  0  0  0
   -3.0000    1.4380    0.8820 C   0  0  1  0  0  0  0  0  0  0  0  0
   -1.6710    2.1370    0.5420 C   0  0  0  0  0  0  0  0  0  0  0  0
   -1.8450    3.0230   -0.0810 H   0  0  0  0  0  0  0  0  0  0  0  0
   -1.2500    2.5350    1.4720 H   0  0  0  0  0  0  0  0  0  0  0  0
    3.0550    1.2510   -0.6320 C   0  0  3  0  0  0  0  0  0  0  0  0
   -2.5010   -1.0040    0.5230 O   0  0  0  0  0  0  0  0  0  0  0  0
   -4.7870   -0.2470    0.0460 C   0  0  0  0  0  0  0  0  0  0  0  0
   -5.1400   -0.4270    1.0640 H   0  0  0  0  0  0  0  0  0  0  0  0
   -5.4220    0.5720   -0.3150 H   0  0  0  0  0  0  0  0  0  0  0  0
    1.1800   -0.3240   -1.5150 C   0  0  0  0  0  0  0  0  0  0  0  0
    1.7970   -0.8620   -2.2430 H   0  0  0  0  0  0  0  0  0  0  0  0
    1.3030   -0.8510   -0.5600 H   0  0  0  0  0  0  0  0  0  0  0  0
   -0.2900   -0.4890   -1.9300 C   0  0  0  0  0  0  0  0  0  0  0  0
   -0.6120   -1.4510   -1.5180 H   0  0  0  0  0  0  0  0  0  0  0  0
   -0.3510   -0.5760   -3.0220 H   0  0  0  0  0  0  0  0  0  0  0  0
   -3.1380   -0.9200   -2.2970 C   0  0  0  0  0  0  0  0  0  0  0  0
   -2.8510   -0.7710   -3.3450 H   0  0  0  0  0  0  0  0  0  0  0  0
   -2.5810   -1.7950   -1.9450 H   0  0  0  0  0  0  0  0  0  0  0  0
    1.4780    2.1970    0.8930 C   0  0  0  0  0  0  0  0  0  0  0  0
    1.8260    3.2370    0.8980 H   0  0  0  0  0  0  0  0  0  0  0  0
    0.8960    2.0450    1.8070 H   0  0  0  0  0  0  0  0  0  0  0  0
   -4.0710    2.4020    0.6810 O   0  0  0  0  0  0  0  0  0  0  0  0
    2.6730    1.2630    0.8500 C   0  0  0  0  0  0  0  0  0  0  0  0
    2.3700    0.2750    1.2090 H   0  0  0  0  0  0  0  0  0  0  0  0
    3.4880    1.6240    1.4860 H   0  0  0  0  0  0  0  0  0  0  0  0
   -2.5190   -1.7230    1.6620 C   0  0  0  0  0  0  0  0  0  0  0  0
   -4.5030    3.2980    1.6000 C   0  0  0  0  0  0  0  0  0  0  0  0
   -7.1680   -2.5350    0.0390 C   0  0  0  0  0  0  0  0  0  0  0  0
   -5.0740   -1.4980   -0.7910 C   0  0  1  0  0  0  0  0  0  0  0  0
   -6.5030   -1.7270   -0.8220 O   0  0  0  0  0  0  0  0  0  0  0  0
   -2.0360   -2.8530    1.6850 O   0  0  0  0  0  0  0  0  0  0  0  0
   -5.3600    4.1290    1.3150 O   0  0  0  0  0  0  0  0  0  0  0  0
   -8.3910   -2.6400   -0.0090 O   0  0  0  0  0  0  0  0  0  0  0  0
    4.2690    0.3210   -0.9440 C   0  0  1  0  0  0  0  0  0  0  0  0
   -4.6160   -1.3010   -2.2340 C   0  0  0  0  0  0  0  0  0  0  0  0
   -4.7810   -2.2290   -2.7960 H   0  0  0  0  0  0  0  0  0  0  0  0
   -5.2380   -0.5510   -2.7360 H   0  0  0  0  0  0  0  0  0  0  0  0
   -3.4820    1.5490   -2.1580 C   0  0  0  0  0  0  0  0  0  0  0  0
   -3.2200    1.5740   -3.2230 H   0  0  0  0  0  0  0  0  0  0  0  0
   -3.1800    2.5150   -1.7460 H   0  0  0  0  0  0  0  0  0  0  0  0
   -4.5720    1.5020   -2.1000 H   0  0  0  0  0  0  0  0  0  0  0  0
    1.7250    1.8100   -2.7400 C   0  0  0  0  0  0  0  0  0  0  0  0
    2.3210    1.2360   -3.4530 H   0  0  0  0  0  0  0  0  0  0  0  0
    2.1620    2.8130   -2.6710 H   0  0  0  0  0  0  0  0  0  0  0  0
    0.7350    1.9270   -3.1870 H   0  0  0  0  0  0  0  0  0  0  0  0
    5.4550   -1.9710   -0.5530 C   0  0  0  0  0  0  0  0  0  0  0  0
    5.2490   -2.9740   -0.1580 H   0  0  0  0  0  0  0  0  0  0  0  0
    5.6850   -2.1240   -1.6150 H   0  0  0  0  0  0  0  0  0  0  0  0
   -3.0540   -1.1010    2.9110 C   0  0  0  0  0  0  0  0  0  0  0  0
   -4.0300   -0.6440    2.7700 H   0  0  0  0  0  0  0  0  0  0  0  0
   -2.3310   -0.3830    3.3040 H   0  0  0  0  0  0  0  0  0  0  0  0
   -3.1870   -1.8870    3.6630 H   0  0  0  0  0  0  0  0  0  0  0  0
   -3.9160    3.2160    2.9760 C   0  0  0  0  0  0  0  0  0  0  0  0
   -4.1760    2.2630    3.4420 H   0  0  0  0  0  0  0  0  0  0  0  0
   -4.3450    4.0140    3.5910 H   0  0  0  0  0  0  0  0  0  0  0  0
   -2.8370    3.3700    2.9490 H   0  0  0  0  0  0  0  0  0  0  0  0
   -6.3560   -3.3050    1.0370 C   0  0  0  0  0  0  0  0  0  0  0  0
   -5.7170   -4.0300    0.5280 H   0  0  0  0  0  0  0  0  0  0  0  0
   -7.0330   -3.8620    1.6920 H   0  0  0  0  0  0  0  0  0  0  0  0
   -5.7740   -2.6310    1.6680 H   0  0  0  0  0  0  0  0  0  0  0  0
    4.1730   -1.1320   -0.4250 C   0  0  0  0  0  0  0  0  0  0  0  0
    3.8730   -1.1390    0.6270 H   0  0  0  0  0  0  0  0  0  0  0  0
    3.3940   -1.6730   -0.9670 H   0  0  0  0  0  0  0  0  0  0  0  0
    4.6620    0.3630   -2.4240 C   0  0  0  0  0  0  0  0  0  0  0  0
    5.6740   -0.0260   -2.5730 H   0  0  0  0  0  0  0  0  0  0  0  0
    4.6630    1.3900   -2.8020 H   0  0  0  0  0  0  0  0  0  0  0  0
    3.9850   -0.2390   -3.0380 H   0  0  0  0  0  0  0  0  0  0  0  0
    6.7020   -1.4070    0.1390 C   0  0  0  0  0  0  0  0  0  0  0  0
    7.0160   -0.4950   -0.3820 H   0  0  0  0  0  0  0  0  0  0  0  0
    7.5200   -2.1260   -0.0050 H   0  0  0  0  0  0  0  0  0  0  0  0
    6.5560   -1.1060    1.6430 C   0  0  0  0  0  0  0  0  0  0  0  0
    5.7700   -0.3560    1.7870 H   0  0  0  0  0  0  0  0  0  0  0  0
    6.1890   -2.3490    2.4540 C   0  0  0  0  0  0  0  0  0  0  0  0
    6.9210   -3.1510    2.3070 H   0  0  0  0  0  0  0  0  0  0  0  0
    5.2030   -2.7320    2.1730 H   0  0  0  0  0  0  0  0  0  0  0  0
    6.1530   -2.1180    3.5240 H   0  0  0  0  0  0  0  0  0  0  0  0
    7.8610   -0.5090    2.1770 C   0  0  0  0  0  0  0  0  0  0  0  0
    8.6940   -1.2130    2.0740 H   0  0  0  0  0  0  0  0  0  0  0  0
    7.7660   -0.2500    3.2370 H   0  0  0  0  0  0  0  0  0  0  0  0
    8.1210    0.4060    1.6330 H   0  0  0  0  0  0  0  0  0  0  0  0
   -0.4600    0.3840    0.5530 H   0  0  0  0  0  0  0  0  0  0  0  0
   -1.0890    1.4450   -2.2140 H   0  0  0  0  0  0  0  0  0  0  0  0
    0.4710    2.9080   -0.8590 H   0  0  0  0  0  0  0  0  0  0  0  0
   -2.9690    1.1680    1.9330 H   0  0  0  0  0  0  0  0  0  0  0  0
    3.4260    2.2670   -0.8500 H   0  0  0  0  0  0  0  0  0  0  0  0
   -4.5540   -2.3700   -0.3840 H   0  0  0  0  0  0  0  0  0  0  0  0
    5.1040    0.7850   -0.4020 H   0  0  0  0  0  0  0  0  0  0  0  0
  1  2  1  0  0  0  0
  1  7  1  0  0  0  0
  1 12  1  0  0  0  0
  1 13  1  0  0  0  0
  2  5  1  0  0  0  0
  2 22  1  0  0  0  0
  2 44  1  0  0  0  0
  3  6  1  0  0  0  0
  3 11  1  0  0  0  0
  3 16  1  0  0  0  0
  3 48  1  0  0  0  0
  4  5  1  0  0  0  0
  4  6  1  0  0  0  0
  4  8  1  0  0  0  0
  4 87  1  0  0  0  0
  5 19  1  0  0  0  0
  5 88  1  0  0  0  0
  6 25  1  0  0  0  0
  6 89  1  0  0  0  0
  7  8  1  0  0  0  0
  7 28  1  0  0  0  0
  7 90  1  0  0  0  0
  8  9  1  0  0  0  0
  8 10  1  0  0  0  0
 11 29  1  0  0  0  0
 11 40  1  0  0  0  0
 11 91  1  0  0  0  0
 12 32  1  0  0  0  0
 13 14  1  0  0  0  0
 13 15  1  0  0  0  0
 13 35  1  0  0  0  0
 16 17  1  0  0  0  0
 16 18  1  0  0  0  0
 16 19  1  0  0  0  0
 19 20  1  0  0  0  0
 19 21  1  0  0  0  0
 22 23  1  0  0  0  0
 22 24  1  0  0  0  0
 22 41  1  0  0  0  0
 25 26  1  0  0  0  0
 25 27  1  0  0  0  0
 25 29  1  0  0  0  0
 28 33  1  0  0  0  0
 29 30  1  0  0  0  0
 29 31  1  0  0  0  0
 32 37  2  0  0  0  0
 32 55  1  0  0  0  0
 33 38  2  0  0  0  0
 33 59  1  0  0  0  0
 34 36  1  0  0  0  0
 34 39  2  0  0  0  0
 34 63  1  0  0  0  0
 35 36  1  0  0  0  0
 35 41  1  0  0  0  0
 35 92  1  0  0  0  0
 40 67  1  0  0  0  0
 40 70  1  0  0  0  0
 40 93  1  0  0  0  0
 41 42  1  0  0  0  0
 41 43  1  0  0  0  0
 44 45  1  0  0  0  0
 44 46  1  0  0  0  0
 44 47  1  0  0  0  0
 48 49  1  0  0  0  0
 48 50  1  0  0  0  0
 48 51  1  0  0  0  0
 52 53  1  0  0  0  0
 52 54  1  0  0  0  0
 52 67  1  0  0  0  0
 52 74  1  0  0  0  0
 55 56  1  0  0  0  0
 55 57  1  0  0  0  0
 55 58  1  0  0  0  0
 59 60  1  0  0  0  0
 59 61  1  0  0  0  0
 59 62  1  0  0  0  0
 63 64  1  0  0  0  0
 63 65  1  0  0  0  0
 63 66  1  0  0  0  0
 67 68  1  0  0  0  0
 67 69  1  0  0  0  0
 70 71  1  0  0  0  0
 70 72  1  0  0  0  0
 70 73  1  0  0  0  0
 74 75  1  0  0  0  0
 74 76  1  0  0  0  0
 74 77  1  0  0  0  0
 77 78  1  0  0  0  0
 77 79  1  0  0  0  0
 77 83  1  0  0  0  0
 79 80  1  0  0  0  0
 79 81  1  0  0  0  0
 79 82  1  0  0  0  0
 83 84  1  0  0  0  0
 83 85  1  0  0  0  0
 83 86  1  0  0  0  0
M  END
>  <IDNUMBER>
AQ-152/42730361

>  <NAME>
Cholestane-3,5,6-triol, derivative of

>  <ADD_INFO>
http://www.specs.net/enter.php?specsid=AQ-152/42730361

>  <H_ACCEPTORS>
6

>  <H_DONORS>
0

>  <ROTATABLE_BONDS>
11

>  <LOGP>
8.8000002

>  <LOGS>
-10.7

>  <TPSA>
78.900002

>  <PRICE>
N05

$$$$
AQ-152/42730366
  MOE2011           3D

 75 79  0  0  1  0  0  0  0  0999 V2000
    0.5460    0.2000   -1.1370 C   0  0  2  0  0  0  0  0  0  0  0  0
    1.7890    0.8000   -0.5500 C   0  0  0  0  0  0  0  0  0  0  0  0
   -1.2430   -1.6540   -0.5110 C   0  0  1  0  0  0  0  0  0  0  0  0
   -0.4120    1.2800   -0.5740 C   0  0  1  0  0  0  0  0  0  0  0  0
    3.0100    1.1720   -0.9580 C   0  0  0  0  0  0  0  0  0  0  0  0
   -2.0920   -0.5080    0.1700 C   0  0  1  0  0  0  0  0  0  0  0  0
    0.2760   -1.2090   -0.4920 C   0  0  1  0  0  0  0  0  0  0  0  0
   -1.8900    0.8570   -0.5370 C   0  0  1  0  0  0  0  0  0  0  0  0
    0.0640    1.6370    0.7540 O   0  0  0  0  0  0  0  0  0  0  0  0
    1.4570    1.3400    0.8000 C   0  0  2  0  0  0  0  0  0  0  0  0
   -3.6040   -0.8700    0.4370 C   0  0  1  0  0  0  0  0  0  0  0  0
    3.6140    2.1360    0.0480 C   0  0  1  0  0  0  0  0  0  0  0  0
   -3.7580   -2.3230    0.8560 C   0  0  0  0  0  0  0  0  0  0  0  0
   -4.7390   -2.6290    1.2200 H   0  0  0  0  0  0  0  0  0  0  0  0
    2.3910    2.5340    0.9040 C   0  0  0  0  0  0  0  0  0  0  0  0
    1.9080    3.4300    0.4910 H   0  0  0  0  0  0  0  0  0  0  0  0
    2.6440    2.7620    1.9450 H   0  0  0  0  0  0  0  0  0  0  0  0
   -1.4260   -2.9160    0.3650 C   0  0  0  0  0  0  0  0  0  0  0  0
   -4.0710   -0.0900    1.6970 C   0  0  0  0  0  0  0  0  0  0  0  0
    4.7500    1.5560    0.8310 C   0  0  0  0  0  0  0  0  0  0  0  0
   -2.7810   -3.2340    0.8730 C   0  0  0  0  0  0  0  0  0  0  0  0
   -2.9390   -4.2410    1.2410 H   0  0  0  0  0  0  0  0  0  0  0  0
   -2.6520    1.8660    0.1610 O   0  0  0  0  0  0  0  0  0  0  0  0
    1.3000   -2.2710   -1.0020 C   0  0  0  0  0  0  0  0  0  0  0  0
    1.9680   -1.8630   -1.7650 H   0  0  0  0  0  0  0  0  0  0  0  0
    0.7920   -3.1330   -1.4430 H   0  0  0  0  0  0  0  0  0  0  0  0
   -2.9340    3.0040   -0.5300 C   0  0  0  0  0  0  0  0  0  0  0  0
    2.2190   -2.7880    0.0930 C   0  0  0  0  0  0  0  0  0  0  0  0
    6.0110    0.2040    2.1300 O   0  0  0  0  0  0  0  0  0  0  0  0
    4.7910    0.3850    1.5640 C   0  0  0  0  0  0  0  0  0  0  0  0
    4.0680   -0.3930    1.7680 H   0  0  0  0  0  0  0  0  0  0  0  0
    6.0510    2.1240    0.9730 C   0  0  0  0  0  0  0  0  0  0  0  0
    6.4150    3.0470    0.5450 H   0  0  0  0  0  0  0  0  0  0  0  0
   -3.5910   -0.2520    2.8160 O   0  0  0  0  0  0  0  0  0  0  0  0
    6.7730    1.2650    1.7670 C   0  0  0  0  0  0  0  0  0  0  0  0
    7.7860    1.2650    2.1450 H   0  0  0  0  0  0  0  0  0  0  0  0
   -0.5310   -3.7260    0.5950 O   0  0  0  0  0  0  0  0  0  0  0  0
   -2.6510    3.2180   -1.7010 O   0  0  0  0  0  0  0  0  0  0  0  0
    2.4390   -2.2310    1.1600 O   0  0  0  0  0  0  0  0  0  0  0  0
    0.4860    0.2380   -2.6730 C   0  0  0  0  0  0  0  0  0  0  0  0
    1.0570   -0.5640   -3.1450 H   0  0  0  0  0  0  0  0  0  0  0  0
    0.8790    1.1860   -3.0610 H   0  0  0  0  0  0  0  0  0  0  0  0
   -0.5370    0.1690   -3.0480 H   0  0  0  0  0  0  0  0  0  0  0  0
   -1.7330   -2.0330   -1.9230 C   0  0  0  0  0  0  0  0  0  0  0  0
   -2.0680   -1.1700   -2.5000 H   0  0  0  0  0  0  0  0  0  0  0  0
   -2.5730   -2.7360   -1.8950 H   0  0  0  0  0  0  0  0  0  0  0  0
   -0.9570   -2.5310   -2.5110 H   0  0  0  0  0  0  0  0  0  0  0  0
    3.7190    0.8960   -2.2360 C   0  0  0  0  0  0  0  0  0  0  0  0
    4.7320    0.5310   -2.0370 H   0  0  0  0  0  0  0  0  0  0  0  0
    3.7930    1.8080   -2.8370 H   0  0  0  0  0  0  0  0  0  0  0  0
    3.2190    0.1310   -2.8330 H   0  0  0  0  0  0  0  0  0  0  0  0
   -5.0770    0.7870    1.4210 O   0  0  0  0  0  0  0  0  0  0  0  0
   -4.5400   -0.6330   -0.7630 C   0  0  0  0  0  0  0  0  0  0  0  0
   -4.2720   -1.2420   -1.6290 H   0  0  0  0  0  0  0  0  0  0  0  0
   -4.5490    0.4130   -1.0830 H   0  0  0  0  0  0  0  0  0  0  0  0
   -5.5780   -0.8880   -0.5120 H   0  0  0  0  0  0  0  0  0  0  0  0
    2.8140   -3.9450   -0.3240 O   0  0  0  0  0  0  0  0  0  0  0  0
   -3.6880    3.9610    0.3410 C   0  0  0  0  0  0  0  0  0  0  0  0
   -3.2330    4.0030    1.3350 H   0  0  0  0  0  0  0  0  0  0  0  0
   -4.7320    3.6500    0.4110 H   0  0  0  0  0  0  0  0  0  0  0  0
   -3.6360    4.9630   -0.0940 H   0  0  0  0  0  0  0  0  0  0  0  0
   -5.5510    1.5200    2.5530 C   0  0  0  0  0  0  0  0  0  0  0  0
   -6.3390    2.1970    2.2130 H   0  0  0  0  0  0  0  0  0  0  0  0
   -4.7430    2.1190    2.9870 H   0  0  0  0  0  0  0  0  0  0  0  0
   -5.9740    0.8400    3.2990 H   0  0  0  0  0  0  0  0  0  0  0  0
    3.7020   -4.5220    0.6330 C   0  0  0  0  0  0  0  0  0  0  0  0
    4.1120   -5.4410    0.2050 H   0  0  0  0  0  0  0  0  0  0  0  0
    3.1620   -4.7770    1.5510 H   0  0  0  0  0  0  0  0  0  0  0  0
    4.5300   -3.8390    0.8480 H   0  0  0  0  0  0  0  0  0  0  0  0
    1.6390    0.6100    1.5950 H   0  0  0  0  0  0  0  0  0  0  0  0
   -1.6530   -0.3800    1.1740 H   0  0  0  0  0  0  0  0  0  0  0  0
   -0.3270    2.2080   -1.1580 H   0  0  0  0  0  0  0  0  0  0  0  0
    0.4710   -1.0990    0.5840 H   0  0  0  0  0  0  0  0  0  0  0  0
   -2.2690    0.7820   -1.5620 H   0  0  0  0  0  0  0  0  0  0  0  0
    3.9660    3.0350   -0.4750 H   0  0  0  0  0  0  0  0  0  0  0  0
  1  2  1  0  0  0  0
  1  4  1  0  0  0  0
  1  7  1  0  0  0  0
  1 40  1  0  0  0  0
  2  5  2  0  0  0  0
  2 10  1  0  0  0  0
  3  6  1  0  0  0  0
  3  7  1  0  0  0  0
  3 18  1  0  0  0  0
  3 44  1  0  0  0  0
  4  8  1  0  0  0  0
  4  9  1  0  0  0  0
  4 72  1  0  0  0  0
  5 12  1  0  0  0  0
  5 48  1  0  0  0  0
  6  8  1  0  0  0  0
  6 11  1  0  0  0  0
  6 71  1  0  0  0  0
  7 24  1  0  0  0  0
  7 73  1  0  0  0  0
  8 23  1  0  0  0  0
  8 74  1  0  0  0  0
  9 10  1  0  0  0  0
 10 15  1  0  0  0  0
 10 70  1  0  0  0  0
 11 13  1  0  0  0  0
 11 19  1  0  0  0  0
 11 53  1  0  0  0  0
 12 15  1  0  0  0  0
 12 20  1  0  0  0  0
 12 75  1  0  0  0  0
 13 14  1  0  0  0  0
 13 21  2  0  0  0  0
 15 16  1  0  0  0  0
 15 17  1  0  0  0  0
 18 21  1  0  0  0  0
 18 37  2  0  0  0  0
 19 34  2  0  0  0  0
 19 52  1  0  0  0  0
 20 30  2  0  0  0  0
 20 32  1  0  0  0  0
 21 22  1  0  0  0  0
 23 27  1  0  0  0  0
 24 25  1  0  0  0  0
 24 26  1  0  0  0  0
 24 28  1  0  0  0  0
 27 38  2  0  0  0  0
 27 58  1  0  0  0  0
 28 39  2  0  0  0  0
 28 57  1  0  0  0  0
 29 30  1  0  0  0  0
 29 35  1  0  0  0  0
 30 31  1  0  0  0  0
 32 33  1  0  0  0  0
 32 35  2  0  0  0  0
 35 36  1  0  0  0  0
 40 41  1  0  0  0  0
 40 42  1  0  0  0  0
 40 43  1  0  0  0  0
 44 45  1  0  0  0  0
 44 46  1  0  0  0  0
 44 47  1  0  0  0  0
 48 49  1  0  0  0  0
 48 50  1  0  0  0  0
 48 51  1  0  0  0  0
 52 62  1  0  0  0  0
 53 54  1  0  0  0  0
 53 55  1  0  0  0  0
 53 56  1  0  0  0  0
 57 66  1  0  0  0  0
 58 59  1  0  0  0  0
 58 60  1  0  0  0  0
 58 61  1  0  0  0  0
 62 63  1  0  0  0  0
 62 64  1  0  0  0  0
 62 65  1  0  0  0  0
 66 67  1  0  0  0  0
 66 68  1  0  0  0  0
 66 69  1  0  0  0  0
M  END
>  <IDNUMBER>
AQ-152/42730366

>  <NAME>
Nimbin

>  <ADD_INFO>
http://www.specs.net/enter.php?specsid=AQ-152/42730366

>  <H_ACCEPTORS>
8

>  <H_DONORS>
0

>  <ROTATABLE_BONDS>
8

>  <LOGP>
3.25

>  <LOGS>
-5.9200001

>  <TPSA>
118.34

>  <PRICE>
N07

$$$$
AQ-152/42730379
  MOE2011           3D

 52 55  0  0  1  0  0  0  0  0999 V2000
    2.1500   -0.9900    0.3180 C   0  0  1  0  0  0  0  0  0  0  0  0
    1.3920    0.3560    0.0820 C   0  0  1  0  0  0  0  0  0  0  0  0
   -0.8720   -0.9130    0.7030 C   0  0  3  0  0  0  0  0  0  0  0  0
    0.0310    0.3520    0.8910 C   0  0  3  0  0  0  0  0  0  0  0  0
    1.2310   -2.1200   -0.1430 C   0  0  0  0  0  0  0  0  0  0  0  0
   -0.0820   -2.2360    0.5980 C   0  0  0  0  0  0  0  0  0  0  0  0
   -0.6640   -3.0280    0.1180 H   0  0  0  0  0  0  0  0  0  0  0  0
    0.1530   -2.6030    1.6060 H   0  0  0  0  0  0  0  0  0  0  0  0
   -1.9630   -0.7740   -0.3980 C   0  0  3  0  0  0  0  0  0  0  0  0
   -2.7470    0.5800   -0.3500 C   0  0  2  0  0  0  0  0  0  0  0  0
    3.5150   -1.0250   -0.3810 C   0  0  0  0  0  0  0  0  0  0  0  0
    4.0370   -1.9630   -0.1460 H   0  0  0  0  0  0  0  0  0  0  0  0
    3.4220   -1.0270   -1.4740 H   0  0  0  0  0  0  0  0  0  0  0  0
    2.3080    1.5110    0.5860 C   0  0  0  0  0  0  0  0  0  0  0  0
    1.8510    2.4860    0.3790 H   0  0  0  0  0  0  0  0  0  0  0  0
    2.4160    1.4500    1.6770 H   0  0  0  0  0  0  0  0  0  0  0  0
   -0.7570    1.6780    0.7910 C   0  0  0  0  0  0  0  0  0  0  0  0
   -0.4810    2.3160    1.6400 H   0  0  0  0  0  0  0  0  0  0  0  0
   -0.4830    2.2570   -0.0940 H   0  0  0  0  0  0  0  0  0  0  0  0
   -2.2660    1.4840    0.8020 C   0  0  0  0  0  0  0  0  0  0  0  0
   -2.7550    2.4650    0.7400 H   0  0  0  0  0  0  0  0  0  0  0  0
   -2.5640    1.0630    1.7710 H   0  0  0  0  0  0  0  0  0  0  0  0
    1.5240   -2.9050   -1.0430 O   0  0  0  0  0  0  0  0  0  0  0  0
    2.4510   -1.1980    1.7070 O   0  0  0  0  0  0  0  0  0  0  0  0
    1.6580   -1.1000    2.2550 H   0  0  0  0  0  0  0  0  0  0  0  0
    4.4000    0.1360    0.0790 C   0  0  2  0  0  0  0  0  0  0  0  0
    1.1300    0.5700   -1.4360 C   0  0  0  0  0  0  0  0  0  0  0  0
    0.7050    1.5560   -1.6430 H   0  0  0  0  0  0  0  0  0  0  0  0
    0.4530   -0.1790   -1.8490 H   0  0  0  0  0  0  0  0  0  0  0  0
    2.0430    0.5180   -2.0340 H   0  0  0  0  0  0  0  0  0  0  0  0
    3.7050    1.4920   -0.0420 C   0  0  0  0  0  0  0  0  0  0  0  0
    4.3280    2.2610    0.4320 H   0  0  0  0  0  0  0  0  0  0  0  0
    3.6520    1.7890   -1.0970 H   0  0  0  0  0  0  0  0  0  0  0  0
   -3.0660   -1.8500   -0.2620 C   0  0  0  0  0  0  0  0  0  0  0  0
   -3.4260   -2.1260   -1.2610 H   0  0  0  0  0  0  0  0  0  0  0  0
   -2.7500   -2.7700    0.2370 H   0  0  0  0  0  0  0  0  0  0  0  0
   -4.2310    0.2020   -0.1180 C   0  0  0  0  0  0  0  0  0  0  0  0
   -4.7640    0.9180    0.5150 H   0  0  0  0  0  0  0  0  0  0  0  0
   -4.7780    0.1410   -1.0680 H   0  0  0  0  0  0  0  0  0  0  0  0
    5.5850    0.1440   -0.7140 O   0  0  0  0  0  0  0  0  0  0  0  0
    6.1560    0.8560   -0.3780 H   0  0  0  0  0  0  0  0  0  0  0  0
   -2.6410    1.3210   -1.6950 C   0  0  0  0  0  0  0  0  0  0  0  0
   -3.2230    2.2500   -1.6790 H   0  0  0  0  0  0  0  0  0  0  0  0
   -3.0250    0.7050   -2.5170 H   0  0  0  0  0  0  0  0  0  0  0  0
   -1.6090    1.5780   -1.9440 H   0  0  0  0  0  0  0  0  0  0  0  0
   -4.1840   -1.1760    0.5110 C   0  0  0  0  0  0  0  0  0  0  0  0
   -3.9360   -1.1090    1.5760 H   0  0  0  0  0  0  0  0  0  0  0  0
   -5.1350   -1.7080    0.4120 H   0  0  0  0  0  0  0  0  0  0  0  0
   -1.4340   -1.0070    1.6450 H   0  0  0  0  0  0  0  0  0  0  0  0
    0.3220    0.3110    1.9520 H   0  0  0  0  0  0  0  0  0  0  0  0
   -1.4880   -0.9140   -1.3740 H   0  0  0  0  0  0  0  0  0  0  0  0
    4.7050   -0.0260    1.1200 H   0  0  0  0  0  0  0  0  0  0  0  0
  1  2  1  0  0  0  0
  1  5  1  0  0  0  0
  1 11  1  0  0  0  0
  1 24  1  0  0  0  0
  2  4  1  0  0  0  0
  2 14  1  0  0  0  0
  2 27  1  0  0  0  0
  3  4  1  0  0  0  0
  3  6  1  0  0  0  0
  3  9  1  0  0  0  0
  3 49  1  0  0  0  0
  4 17  1  0  0  0  0
  4 50  1  0  0  0  0
  5  6  1  0  0  0  0
  5 23  2  0  0  0  0
  6  7  1  0  0  0  0
  6  8  1  0  0  0  0
  9 10  1  0  0  0  0
  9 34  1  0  0  0  0
  9 51  1  0  0  0  0
 10 20  1  0  0  0  0
 10 37  1  0  0  0  0
 10 42  1  0  0  0  0
 11 12  1  0  0  0  0
 11 13  1  0  0  0  0
 11 26  1  0  0  0  0
 14 15  1  0  0  0  0
 14 16  1  0  0  0  0
 14 31  1  0  0  0  0
 17 18  1  0  0  0  0
 17 19  1  0  0  0  0
 17 20  1  0  0  0  0
 20 21  1  0  0  0  0
 20 22  1  0  0  0  0
 24 25  1  0  0  0  0
 26 31  1  0  0  0  0
 26 40  1  0  0  0  0
 26 52  1  0  0  0  0
 27 28  1  0  0  0  0
 27 29  1  0  0  0  0
 27 30  1  0  0  0  0
 31 32  1  0  0  0  0
 31 33  1  0  0  0  0
 34 35  1  0  0  0  0
 34 36  1  0  0  0  0
 34 46  1  0  0  0  0
 37 38  1  0  0  0  0
 37 39  1  0  0  0  0
 37 46  1  0  0  0  0
 40 41  1  0  0  0  0
 42 43  1  0  0  0  0
 42 44  1  0  0  0  0
 42 45  1  0  0  0  0
 46 47  1  0  0  0  0
 46 48  1  0  0  0  0
M  END
>  <IDNUMBER>
AQ-152/42730379

>  <NAME>
3,5,25-Trihydroxyergostan-6-one

>  <ADD_INFO>
http://www.specs.net/enter.php?specsid=AQ-152/42730379

>  <H_ACCEPTORS>
3

>  <H_DONORS>
2

>  <ROTATABLE_BONDS>
0

>  <LOGP>
3.5899999

>  <LOGS>
-4.5

>  <TPSA>
57.529999

>  <PRICE>
N07

$$$$
AQ-152/42730386
  MOE2011           3D

 82 85  0  0  1  0  0  0  0  0999 V2000
    0.7220    0.6180    0.1400 C   0  0  1  0  0  0  0  0  0  0  0  0
   -1.6930    0.5800    1.1490 C   0  0  3  0  0  0  0  0  0  0  0  0
   -2.8130   -1.5980    0.1070 C   0  0  1  0  0  0  0  0  0  0  0  0
   -0.7320    1.2300    0.1260 C   0  0  3  0  0  0  0  0  0  0  0  0
   -1.7360   -0.9680    1.0770 C   0  0  3  0  0  0  0  0  0  0  0  0
   -4.0900    0.6360    0.1800 C   0  0  1  0  0  0  0  0  0  0  0  0
   -3.0950    1.2080    1.1910 C   0  0  0  0  0  0  0  0  0  0  0  0
   -3.0430    2.2970    1.0870 H   0  0  0  0  0  0  0  0  0  0  0  0
   -3.5010    1.0440    2.2010 H   0  0  0  0  0  0  0  0  0  0  0  0
   -4.1870   -0.8970    0.3450 C   0  0  3  0  0  0  0  0  0  0  0  0
    1.6280    1.8130    0.6020 C   0  0  3  0  0  0  0  0  0  0  0  0
   -5.3910    1.2730    0.3970 N   0  0  0  0  0  0  0  0  0  0  0  0
   -5.9850    0.9060    1.1330 H   0  0  0  0  0  0  0  0  0  0  0  0
    0.8090   -0.5770    1.1200 C   0  0  0  0  0  0  0  0  0  0  0  0
    1.7540   -1.1140    0.9960 H   0  0  0  0  0  0  0  0  0  0  0  0
    0.8010   -0.2220    2.1590 H   0  0  0  0  0  0  0  0  0  0  0  0
   -0.3270   -1.5860    0.9420 C   0  0  0  0  0  0  0  0  0  0  0  0
   -0.2130   -2.3690    1.7040 H   0  0  0  0  0  0  0  0  0  0  0  0
   -0.1900   -2.1030   -0.0090 H   0  0  0  0  0  0  0  0  0  0  0  0
   -0.5550    2.7390    0.3940 C   0  0  0  0  0  0  0  0  0  0  0  0
   -1.2430    3.3430   -0.2070 H   0  0  0  0  0  0  0  0  0  0  0  0
   -0.7360    2.9820    1.4480 H   0  0  0  0  0  0  0  0  0  0  0  0
    0.8910    3.0410    0.0550 C   0  0  0  0  0  0  0  0  0  0  0  0
    1.2300    3.9700    0.5230 H   0  0  0  0  0  0  0  0  0  0  0  0
    0.9920    3.1460   -1.0290 H   0  0  0  0  0  0  0  0  0  0  0  0
   -5.9310    2.3450   -0.2590 C   0  0  0  0  0  0  0  0  0  0  0  0
   -7.0440    2.7670    0.0520 O   0  0  0  0  0  0  0  0  0  0  0  0
    3.1680    1.8570    0.3490 C   0  0  1  0  0  0  0  0  0  0  0  0
    1.0720    0.1400   -1.2830 C   0  0  0  0  0  0  0  0  0  0  0  0
    2.0340   -0.3780   -1.3060 H   0  0  0  0  0  0  0  0  0  0  0  0
    1.1080    0.9710   -1.9940 H   0  0  0  0  0  0  0  0  0  0  0  0
    0.3300   -0.5650   -1.6660 H   0  0  0  0  0  0  0  0  0  0  0  0
   -2.4010   -1.4710   -1.3850 C   0  0  0  0  0  0  0  0  0  0  0  0
   -1.4840   -2.0220   -1.6100 H   0  0  0  0  0  0  0  0  0  0  0  0
   -2.2460   -0.4380   -1.6940 H   0  0  0  0  0  0  0  0  0  0  0  0
   -3.1570   -1.8830   -2.0590 H   0  0  0  0  0  0  0  0  0  0  0  0
   -2.9550   -3.1240    0.4310 C   0  0  0  0  0  0  0  0  0  0  0  0
   -2.3580   -3.7140   -0.2770 H   0  0  0  0  0  0  0  0  0  0  0  0
   -2.5360   -3.3540    1.4190 H   0  0  0  0  0  0  0  0  0  0  0  0
   -5.3150   -1.4990   -0.5230 C   0  0  0  0  0  0  0  0  0  0  0  0
   -6.2820   -1.2340   -0.0750 H   0  0  0  0  0  0  0  0  0  0  0  0
   -5.3200   -1.0540   -1.5260 H   0  0  0  0  0  0  0  0  0  0  0  0
    5.4070    0.8110    1.1940 C   0  0  0  0  0  0  0  0  0  0  0  0
    5.6440    1.8480    1.4630 H   0  0  0  0  0  0  0  0  0  0  0  0
    5.6980    0.2110    2.0650 H   0  0  0  0  0  0  0  0  0  0  0  0
   -5.1280    2.9700   -1.3670 C   0  0  0  0  0  0  0  0  0  0  0  0
   -5.0520    2.2740   -2.2060 H   0  0  0  0  0  0  0  0  0  0  0  0
   -4.1300    3.2410   -1.0120 H   0  0  0  0  0  0  0  0  0  0  0  0
   -5.6300    3.8790   -1.7100 H   0  0  0  0  0  0  0  0  0  0  0  0
    3.8890    0.6620    1.0110 C   0  0  0  0  0  0  0  0  0  0  0  0
    3.4680    0.5400    2.0180 H   0  0  0  0  0  0  0  0  0  0  0  0
    3.6650   -0.2620    0.4730 H   0  0  0  0  0  0  0  0  0  0  0  0
    3.6020    2.0630   -1.1040 C   0  0  0  0  0  0  0  0  0  0  0  0
    4.6040    2.5030   -1.1360 H   0  0  0  0  0  0  0  0  0  0  0  0
    2.9610    2.7600   -1.6450 H   0  0  0  0  0  0  0  0  0  0  0  0
    3.6400    1.1250   -1.6640 H   0  0  0  0  0  0  0  0  0  0  0  0
    6.2990    0.3880    0.0190 C   0  0  0  0  0  0  0  0  0  0  0  0
    7.3430    0.4830    0.3500 H   0  0  0  0  0  0  0  0  0  0  0  0
    6.1920    1.1040   -0.8010 H   0  0  0  0  0  0  0  0  0  0  0  0
    6.0830   -1.0340   -0.5330 C   0  0  0  0  0  0  0  0  0  0  0  0
    5.0750   -1.1080   -0.9560 H   0  0  0  0  0  0  0  0  0  0  0  0
   -4.3910   -3.6580    0.4270 C   0  0  0  0  0  0  0  0  0  0  0  0
   -4.3740   -4.7470    0.2980 H   0  0  0  0  0  0  0  0  0  0  0  0
   -4.8490   -3.4740    1.4070 H   0  0  0  0  0  0  0  0  0  0  0  0
    6.2360   -2.1100    0.5420 C   0  0  0  0  0  0  0  0  0  0  0  0
    7.2140   -2.0470    1.0300 H   0  0  0  0  0  0  0  0  0  0  0  0
    6.1400   -3.1100    0.1060 H   0  0  0  0  0  0  0  0  0  0  0  0
    5.4630   -2.0180    1.3110 H   0  0  0  0  0  0  0  0  0  0  0  0
    7.0690   -1.2990   -1.6750 C   0  0  0  0  0  0  0  0  0  0  0  0
    8.1050   -1.2550   -1.3250 H   0  0  0  0  0  0  0  0  0  0  0  0
    6.9470   -0.5590   -2.4730 H   0  0  0  0  0  0  0  0  0  0  0  0
    6.9010   -2.2900   -2.1120 H   0  0  0  0  0  0  0  0  0  0  0  0
   -5.2500   -3.0220   -0.6520 C   0  0  0  0  0  0  0  0  0  0  0  0
   -6.2650   -3.4350   -0.6130 H   0  0  0  0  0  0  0  0  0  0  0  0
   -4.8550   -3.2950   -1.6370 H   0  0  0  0  0  0  0  0  0  0  0  0
   -1.2630    0.8190    2.1350 H   0  0  0  0  0  0  0  0  0  0  0  0
   -1.1600    1.1390   -0.8770 H   0  0  0  0  0  0  0  0  0  0  0  0
   -2.0760   -1.2560    2.0860 H   0  0  0  0  0  0  0  0  0  0  0  0
   -3.7590    0.8810   -0.8320 H   0  0  0  0  0  0  0  0  0  0  0  0
   -4.4740   -1.0870    1.3910 H   0  0  0  0  0  0  0  0  0  0  0  0
    1.5230    1.8730    1.6980 H   0  0  0  0  0  0  0  0  0  0  0  0
    3.5070    2.7580    0.8820 H   0  0  0  0  0  0  0  0  0  0  0  0
  1  4  1  0  0  0  0
  1 11  1  0  0  0  0
  1 14  1  0  0  0  0
  1 29  1  0  0  0  0
  2  4  1  0  0  0  0
  2  5  1  0  0  0  0
  2  7  1  0  0  0  0
  2 76  1  0  0  0  0
  3  5  1  0  0  0  0
  3 10  1  0  0  0  0
  3 33  1  0  0  0  0
  3 37  1  0  0  0  0
  4 20  1  0  0  0  0
  4 77  1  0  0  0  0
  5 17  1  0  0  0  0
  5 78  1  0  0  0  0
  6  7  1  0  0  0  0
  6 10  1  0  0  0  0
  6 12  1  0  0  0  0
  6 79  1  0  0  0  0
  7  8  1  0  0  0  0
  7  9  1  0  0  0  0
 10 40  1  0  0  0  0
 10 80  1  0  0  0  0
 11 23  1  0  0  0  0
 11 28  1  0  0  0  0
 11 81  1  0  0  0  0
 12 13  1  0  0  0  0
 12 26  1  0  0  0  0
 14 15  1  0  0  0  0
 14 16  1  0  0  0  0
 14 17  1  0  0  0  0
 17 18  1  0  0  0  0
 17 19  1  0  0  0  0
 20 21  1  0  0  0  0
 20 22  1  0  0  0  0
 20 23  1  0  0  0  0
 23 24  1  0  0  0  0
 23 25  1  0  0  0  0
 26 27  2  0  0  0  0
 26 46  1  0  0  0  0
 28 50  1  0  0  0  0
 28 53  1  0  0  0  0
 28 82  1  0  0  0  0
 29 30  1  0  0  0  0
 29 31  1  0  0  0  0
 29 32  1  0  0  0  0
 33 34  1  0  0  0  0
 33 35  1  0  0  0  0
 33 36  1  0  0  0  0
 37 38  1  0  0  0  0
 37 39  1  0  0  0  0
 37 62  1  0  0  0  0
 40 41  1  0  0  0  0
 40 42  1  0  0  0  0
 40 73  1  0  0  0  0
 43 44  1  0  0  0  0
 43 45  1  0  0  0  0
 43 50  1  0  0  0  0
 43 57  1  0  0  0  0
 46 47  1  0  0  0  0
 46 48  1  0  0  0  0
 46 49  1  0  0  0  0
 50 51  1  0  0  0  0
 50 52  1  0  0  0  0
 53 54  1  0  0  0  0
 53 55  1  0  0  0  0
 53 56  1  0  0  0  0
 57 58  1  0  0  0  0
 57 59  1  0  0  0  0
 57 60  1  0  0  0  0
 60 61  1  0  0  0  0
 60 65  1  0  0  0  0
 60 69  1  0  0  0  0
 62 63  1  0  0  0  0
 62 64  1  0  0  0  0
 62 73  1  0  0  0  0
 65 66  1  0  0  0  0
 65 67  1  0  0  0  0
 65 68  1  0  0  0  0
 69 70  1  0  0  0  0
 69 71  1  0  0  0  0
 69 72  1  0  0  0  0
 73 74  1  0  0  0  0
 73 75  1  0  0  0  0
M  END
>  <IDNUMBER>
AQ-152/42730386

>  <NAME>
Guggulsterol IV, derivative of

>  <ADD_INFO>
http://www.specs.net/enter.php?specsid=AQ-152/42730386

>  <H_ACCEPTORS>
2

>  <H_DONORS>
1

>  <ROTATABLE_BONDS>
7

>  <LOGP>
8.7600002

>  <LOGS>
-9.8100004

>  <TPSA>
29.1

>  <PRICE>
N05

$$$$
AQ-152/43287164
  MOE2011           3D

 70 74  0  0  1  0  0  0  0  0999 V2000
    0.3430    0.9360    1.4610 C   0  0  2  0  0  0  0  0  0  0  0  0
    1.8380    0.9550    1.2850 C   0  0  0  0  0  0  0  0  0  0  0  0
   -1.8790    0.6360    0.0350 C   0  0  1  0  0  0  0  0  0  0  0  0
    0.2900   -0.6020    1.7290 C   0  0  2  0  0  0  0  0  0  0  0  0
    2.7470    1.2400    0.2010 C   0  0  0  0  0  0  0  0  0  0  0  0
   -1.5760   -0.9160   -0.0020 C   0  0  2  0  0  0  0  0  0  0  0  0
   -0.4640    1.3640    0.1710 C   0  0  1  0  0  0  0  0  0  0  0  0
    1.4610   -1.1290    1.0220 O   0  0  0  0  0  0  0  0  0  0  0  0
    2.4900   -0.3320    1.4500 C   0  0  2  0  0  0  0  0  0  0  0  0
   -2.7340   -1.8200   -0.5560 C   0  0  1  0  0  0  0  0  0  0  0  0
   -0.9880   -1.3660    1.3540 C   0  0  1  0  0  0  0  0  0  0  0  0
    4.1760    0.0490    0.3710 C   0  0  1  0  0  0  0  0  0  0  0  0
   -3.3150   -1.2020   -1.8130 C   0  0  0  0  0  0  0  0  0  0  0  0
   -3.8430   -1.8650   -2.5000 H   0  0  0  0  0  0  0  0  0  0  0  0
    3.7260   -0.9230    1.9260 C   0  0  0  0  0  0  0  0  0  0  0  0
    4.2740   -0.5060    2.7800 H   0  0  0  0  0  0  0  0  0  0  0  0
    3.9280   -1.9700    1.6980 H   0  0  0  0  0  0  0  0  0  0  0  0
   -2.6040    1.0810   -1.2530 C   0  0  0  0  0  0  0  0  0  0  0  0
   -2.1240   -3.1640   -1.0450 C   0  0  0  0  0  0  0  0  0  0  0  0
    4.3220   -0.8350   -0.8220 C   0  0  0  0  0  0  0  0  0  0  0  0
   -3.2090    0.0830   -2.1570 C   0  0  0  0  0  0  0  0  0  0  0  0
   -3.6420    0.4650   -3.0750 H   0  0  0  0  0  0  0  0  0  0  0  0
   -0.4990    2.9180    0.0110 C   0  0  0  0  0  0  0  0  0  0  0  0
    0.3500    3.3600    0.5420 H   0  0  0  0  0  0  0  0  0  0  0  0
   -1.4130    3.3190    0.4490 H   0  0  0  0  0  0  0  0  0  0  0  0
   -0.3560    3.4100   -1.4280 C   0  0  0  0  0  0  0  0  0  0  0  0
    5.2910   -2.0600   -2.4520 O   0  0  0  0  0  0  0  0  0  0  0  0
    5.5120   -1.2650   -1.3750 C   0  0  0  0  0  0  0  0  0  0  0  0
    6.5530   -1.0990   -1.1300 H   0  0  0  0  0  0  0  0  0  0  0  0
    3.3050   -1.4170   -1.6310 C   0  0  0  0  0  0  0  0  0  0  0  0
    2.2340   -1.3180   -1.5190 H   0  0  0  0  0  0  0  0  0  0  0  0
   -1.4890   -3.3020   -2.0840 O   0  0  0  0  0  0  0  0  0  0  0  0
    3.9460   -2.1460   -2.6040 C   0  0  0  0  0  0  0  0  0  0  0  0
    3.6030   -2.7500   -3.4310 H   0  0  0  0  0  0  0  0  0  0  0  0
   -2.8350    2.2670   -1.5000 O   0  0  0  0  0  0  0  0  0  0  0  0
   -0.0440    2.6720   -2.3600 O   0  0  0  0  0  0  0  0  0  0  0  0
   -0.6810   -2.7580    1.3940 O   0  0  0  0  0  0  0  0  0  0  0  0
   -1.5030   -3.2790    1.4220 H   0  0  0  0  0  0  0  0  0  0  0  0
   -0.0190    1.7130    2.7360 C   0  0  0  0  0  0  0  0  0  0  0  0
    0.1540    2.7880    2.6320 H   0  0  0  0  0  0  0  0  0  0  0  0
    0.5930    1.3870    3.5870 H   0  0  0  0  0  0  0  0  0  0  0  0
   -1.0590    1.5680    3.0320 H   0  0  0  0  0  0  0  0  0  0  0  0
   -2.8730    1.0430    1.1510 C   0  0  0  0  0  0  0  0  0  0  0  0
   -2.6900    0.5590    2.1090 H   0  0  0  0  0  0  0  0  0  0  0  0
   -3.9070    0.8150    0.8740 H   0  0  0  0  0  0  0  0  0  0  0  0
   -2.8640    2.1210    1.3330 H   0  0  0  0  0  0  0  0  0  0  0  0
    2.8120    2.2020   -0.9200 C   0  0  0  0  0  0  0  0  0  0  0  0
    3.8450    2.5370   -1.0600 H   0  0  0  0  0  0  0  0  0  0  0  0
    2.2230    3.0950   -0.7160 H   0  0  0  0  0  0  0  0  0  0  0  0
    2.4750    1.7370   -1.8500 H   0  0  0  0  0  0  0  0  0  0  0  0
   -2.3590   -4.1700   -0.1470 O   0  0  0  0  0  0  0  0  0  0  0  0
   -3.9020   -2.0630    0.4150 C   0  0  0  0  0  0  0  0  0  0  0  0
   -4.5080   -1.1690    0.5770 H   0  0  0  0  0  0  0  0  0  0  0  0
   -3.5640   -2.4160    1.3940 H   0  0  0  0  0  0  0  0  0  0  0  0
   -4.5860   -2.8280    0.0240 H   0  0  0  0  0  0  0  0  0  0  0  0
   -0.5200    4.7440   -1.6340 O   0  0  0  0  0  0  0  0  0  0  0  0
   -1.8170   -5.4390   -0.5280 C   0  0  0  0  0  0  0  0  0  0  0  0
   -2.0700   -6.1620    0.2520 H   0  0  0  0  0  0  0  0  0  0  0  0
   -0.7270   -5.3790   -0.6080 H   0  0  0  0  0  0  0  0  0  0  0  0
   -2.2590   -5.7750   -1.4710 H   0  0  0  0  0  0  0  0  0  0  0  0
   -0.9110    5.6360   -0.5810 C   0  0  0  0  0  0  0  0  0  0  0  0
   -0.9130    6.6500   -0.9890 H   0  0  0  0  0  0  0  0  0  0  0  0
   -0.1940    5.6020    0.2440 H   0  0  0  0  0  0  0  0  0  0  0  0
   -1.9230    5.4010   -0.2420 H   0  0  0  0  0  0  0  0  0  0  0  0
    3.1900    0.5250    1.6900 H   0  0  0  0  0  0  0  0  0  0  0  0
   -0.7610   -1.0520   -0.7330 H   0  0  0  0  0  0  0  0  0  0  0  0
    0.4770   -0.8210    2.7930 H   0  0  0  0  0  0  0  0  0  0  0  0
    0.1130    0.9830   -0.6830 H   0  0  0  0  0  0  0  0  0  0  0  0
   -1.7180   -1.2060    2.1520 H   0  0  0  0  0  0  0  0  0  0  0  0
    5.0720    0.6430    0.6010 H   0  0  0  0  0  0  0  0  0  0  0  0
  1  2  1  0  0  0  0
  1  4  1  0  0  0  0
  1  7  1  0  0  0  0
  1 39  1  0  0  0  0
  2  5  2  0  0  0  0
  2  9  1  0  0  0  0
  3  6  1  0  0  0  0
  3  7  1  0  0  0  0
  3 18  1  0  0  0  0
  3 43  1  0  0  0  0
  4  8  1  0  0  0  0
  4 11  1  0  0  0  0
  4 67  1  0  0  0  0
  5 12  1  0  0  0  0
  5 47  1  0  0  0  0
  6 10  1  0  0  0  0
  6 11  1  0  0  0  0
  6 66  1  0  0  0  0
  7 23  1  0  0  0  0
  7 68  1  0  0  0  0
  8  9  1  0  0  0  0
  9 15  1  0  0  0  0
  9 65  1  0  0  0  0
 10 13  1  0  0  0  0
 10 19  1  0  0  0  0
 10 52  1  0  0  0  0
 11 37  1  0  0  0  0
 11 69  1  0  0  0  0
 12 15  1  0  0  0  0
 12 20  1  0  0  0  0
 12 70  1  0  0  0  0
 13 14  1  0  0  0  0
 13 21  2  0  0  0  0
 15 16  1  0  0  0  0
 15 17  1  0  0  0  0
 18 21  1  0  0  0  0
 18 35  2  0  0  0  0
 19 32  2  0  0  0  0
 19 51  1  0  0  0  0
 20 28  2  0  0  0  0
 20 30  1  0  0  0  0
 21 22  1  0  0  0  0
 23 24  1  0  0  0  0
 23 25  1  0  0  0  0
 23 26  1  0  0  0  0
 26 36  2  0  0  0  0
 26 56  1  0  0  0  0
 27 28  1  0  0  0  0
 27 33  1  0  0  0  0
 28 29  1  0  0  0  0
 30 31  1  0  0  0  0
 30 33  2  0  0  0  0
 33 34  1  0  0  0  0
 37 38  1  0  0  0  0
 39 40  1  0  0  0  0
 39 41  1  0  0  0  0
 39 42  1  0  0  0  0
 43 44  1  0  0  0  0
 43 45  1  0  0  0  0
 43 46  1  0  0  0  0
 47 48  1  0  0  0  0
 47 49  1  0  0  0  0
 47 50  1  0  0  0  0
 51 57  1  0  0  0  0
 52 53  1  0  0  0  0
 52 54  1  0  0  0  0
 52 55  1  0  0  0  0
 56 61  1  0  0  0  0
 57 58  1  0  0  0  0
 57 59  1  0  0  0  0
 57 60  1  0  0  0  0
 61 62  1  0  0  0  0
 61 63  1  0  0  0  0
 61 64  1  0  0  0  0
M  END
>  <IDNUMBER>
AQ-152/43287164

>  <NAME>
Nimbin, O-de-acetyl derivative of

>  <ADD_INFO>
http://www.specs.net/enter.php?specsid=AQ-152/43287164

>  <H_ACCEPTORS>
7

>  <H_DONORS>
1

>  <ROTATABLE_BONDS>
6

>  <LOGP>
2.25

>  <LOGS>
-4.2399998

>  <TPSA>
112.27

>  <PRICE>
N05

$$$$
AQ-152/43287165
  MOE2011           3D

 89 92  0  0  1  0  0  0  0  0999 V2000
   -3.5580   -0.7930   -0.0810 C   0  0  2  0  0  0  0  0  0  0  0  0
   -2.9670    0.0190   -1.3260 C   0  0  1  0  0  0  0  0  0  0  0  0
    0.9430    2.1430   -0.5910 C   0  0  1  0  0  0  0  0  0  0  0  0
   -1.2270    1.0970    0.3140 C   0  0  3  0  0  0  0  0  0  0  0  0
   -1.4460    0.3690   -1.0500 C   0  0  3  0  0  0  0  0  0  0  0  0
    0.2820    1.3030    0.5230 C   0  0  3  0  0  0  0  0  0  0  0  0
   -3.3420    0.0070    1.2540 C   0  0  1  0  0  0  0  0  0  0  0  0
   -1.8520    0.3140    1.4810 C   0  0  0  0  0  0  0  0  0  0  0  0
   -1.7560    0.9100    2.3980 H   0  0  0  0  0  0  0  0  0  0  0  0
   -1.2950   -0.6150    1.6510 H   0  0  0  0  0  0  0  0  0  0  0  0
    2.3910    2.3320   -0.0370 C   0  0  3  0  0  0  0  0  0  0  0  0
   -2.7860   -2.0930    0.0290 N   0  0  0  0  0  0  0  0  0  0  0  0
   -2.0920   -2.2890   -0.6830 H   0  0  0  0  0  0  0  0  0  0  0  0
    0.7370    1.4200   -1.9300 C   0  0  0  0  0  0  0  0  0  0  0  0
    1.1510    2.0120   -2.7550 H   0  0  0  0  0  0  0  0  0  0  0  0
    1.2550    0.4590   -1.9400 H   0  0  0  0  0  0  0  0  0  0  0  0
   -0.7500    1.1270   -2.2130 C   0  0  0  0  0  0  0  0  0  0  0  0
   -0.8040    0.5330   -3.1320 H   0  0  0  0  0  0  0  0  0  0  0  0
   -1.2680    2.0660   -2.4280 H   0  0  0  0  0  0  0  0  0  0  0  0
    0.7410    1.9790    1.8070 C   0  0  0  0  0  0  0  0  0  0  0  0
    0.1110    2.8400    2.0570 H   0  0  0  0  0  0  0  0  0  0  0  0
    0.7150    1.2960    2.6620 H   0  0  0  0  0  0  0  0  0  0  0  0
   -4.0190    1.2910    1.2470 O   0  0  0  0  0  0  0  0  0  0  0  0
    2.1770    2.4300    1.5060 C   0  0  0  0  0  0  0  0  0  0  0  0
    2.8980    1.8280    2.0670 H   0  0  0  0  0  0  0  0  0  0  0  0
    2.3130    3.4650    1.8420 H   0  0  0  0  0  0  0  0  0  0  0  0
   -2.9470   -3.0500    1.0130 C   0  0  0  0  0  0  0  0  0  0  0  0
   -5.0710   -1.1730   -0.3300 C   0  0  1  0  0  0  0  0  0  0  0  0
   -4.8120    1.7610    2.2360 C   0  0  0  0  0  0  0  0  0  0  0  0
   -3.7500   -2.9830    1.9370 O   0  0  0  0  0  0  0  0  0  0  0  0
   -5.2830    2.8950    2.1840 O   0  0  0  0  0  0  0  0  0  0  0  0
   -3.0740   -0.8700   -2.6150 C   0  0  0  0  0  0  0  0  0  0  0  0
   -3.1320   -0.2320   -3.5070 H   0  0  0  0  0  0  0  0  0  0  0  0
   -2.1570   -1.4570   -2.7520 H   0  0  0  0  0  0  0  0  0  0  0  0
    3.5510    1.3460   -0.3870 C   0  0  1  0  0  0  0  0  0  0  0  0
   -3.7380    1.3420   -1.6170 C   0  0  0  0  0  0  0  0  0  0  0  0
   -3.4990    1.7310   -2.6130 H   0  0  0  0  0  0  0  0  0  0  0  0
   -3.4890    2.1430   -0.9190 H   0  0  0  0  0  0  0  0  0  0  0  0
   -4.8210    1.2250   -1.5890 H   0  0  0  0  0  0  0  0  0  0  0  0
    0.3290    3.5730   -0.7190 C   0  0  0  0  0  0  0  0  0  0  0  0
    0.8260    4.1250   -1.5260 H   0  0  0  0  0  0  0  0  0  0  0  0
    0.4520    4.1660    0.1930 H   0  0  0  0  0  0  0  0  0  0  0  0
   -0.7400    3.5670   -0.9480 H   0  0  0  0  0  0  0  0  0  0  0  0
   -5.9920   -0.2230    0.2040 O   0  0  0  0  0  0  0  0  0  0  0  0
   -6.8910   -0.5550    0.0380 H   0  0  0  0  0  0  0  0  0  0  0  0
   -4.2490   -1.8530   -2.6480 C   0  0  0  0  0  0  0  0  0  0  0  0
   -3.9110   -2.8380   -2.3020 H   0  0  0  0  0  0  0  0  0  0  0  0
   -4.5670   -2.0000   -3.6870 H   0  0  0  0  0  0  0  0  0  0  0  0
    4.5290   -1.0670   -0.1740 C   0  0  0  0  0  0  0  0  0  0  0  0
    4.1870   -2.0780    0.0740 H   0  0  0  0  0  0  0  0  0  0  0  0
    4.8310   -1.0930   -1.2260 H   0  0  0  0  0  0  0  0  0  0  0  0
   -2.0310   -4.2300    0.8330 C   0  0  0  0  0  0  0  0  0  0  0  0
   -1.0030   -3.8900    0.6780 H   0  0  0  0  0  0  0  0  0  0  0  0
   -2.3570   -4.8160   -0.0310 H   0  0  0  0  0  0  0  0  0  0  0  0
   -2.0610   -4.8590    1.7270 H   0  0  0  0  0  0  0  0  0  0  0  0
   -5.0830    0.8580    3.4010 C   0  0  0  0  0  0  0  0  0  0  0  0
   -5.6020   -0.0450    3.0740 H   0  0  0  0  0  0  0  0  0  0  0  0
   -5.7400    1.3770    4.1070 H   0  0  0  0  0  0  0  0  0  0  0  0
   -4.1530    0.6240    3.9260 H   0  0  0  0  0  0  0  0  0  0  0  0
   -5.4300   -1.4100   -1.8060 C   0  0  0  0  0  0  0  0  0  0  0  0
   -6.2180   -2.1720   -1.8580 H   0  0  0  0  0  0  0  0  0  0  0  0
   -5.8850   -0.5160   -2.2500 H   0  0  0  0  0  0  0  0  0  0  0  0
    3.3250   -0.1290    0.0130 C   0  0  0  0  0  0  0  0  0  0  0  0
    3.0170   -0.1880    1.0620 H   0  0  0  0  0  0  0  0  0  0  0  0
    2.5040   -0.5510   -0.5730 H   0  0  0  0  0  0  0  0  0  0  0  0
    3.9930    1.4840   -1.8500 C   0  0  0  0  0  0  0  0  0  0  0  0
    5.0150    1.1120   -1.9790 H   0  0  0  0  0  0  0  0  0  0  0  0
    3.9950    2.5320   -2.1680 H   0  0  0  0  0  0  0  0  0  0  0  0
    3.3560    0.9180   -2.5340 H   0  0  0  0  0  0  0  0  0  0  0  0
    5.7300   -0.7060    0.7070 C   0  0  0  0  0  0  0  0  0  0  0  0
    5.4160   -0.6760    1.7580 H   0  0  0  0  0  0  0  0  0  0  0  0
    6.0730    0.3020    0.4500 H   0  0  0  0  0  0  0  0  0  0  0  0
    6.9200   -1.6730    0.5470 C   0  0  0  0  0  0  0  0  0  0  0  0
    7.1930   -1.7220   -0.5150 H   0  0  0  0  0  0  0  0  0  0  0  0
    8.1290   -1.1360    1.3180 C   0  0  0  0  0  0  0  0  0  0  0  0
    7.9180   -1.0650    2.3900 H   0  0  0  0  0  0  0  0  0  0  0  0
    8.4080   -0.1390    0.9600 H   0  0  0  0  0  0  0  0  0  0  0  0
    8.9970   -1.7910    1.1860 H   0  0  0  0  0  0  0  0  0  0  0  0
    6.5960   -3.0890    1.0250 C   0  0  0  0  0  0  0  0  0  0  0  0
    6.2440   -3.0870    2.0620 H   0  0  0  0  0  0  0  0  0  0  0  0
    7.4820   -3.7300    0.9710 H   0  0  0  0  0  0  0  0  0  0  0  0
    5.8250   -3.5550    0.4040 H   0  0  0  0  0  0  0  0  0  0  0  0
   -1.7100    2.0780    0.2880 H   0  0  0  0  0  0  0  0  0  0  0  0
   -0.9040   -0.5850   -0.9760 H   0  0  0  0  0  0  0  0  0  0  0  0
    0.7290    0.3000    0.5240 H   0  0  0  0  0  0  0  0  0  0  0  0
   -3.6900   -0.5950    2.0930 H   0  0  0  0  0  0  0  0  0  0  0  0
    2.7590    3.3160   -0.3630 H   0  0  0  0  0  0  0  0  0  0  0  0
   -5.2940   -2.1020    0.2050 H   0  0  0  0  0  0  0  0  0  0  0  0
    4.4020    1.7090    0.2060 H   0  0  0  0  0  0  0  0  0  0  0  0
  1  2  1  0  0  0  0
  1  7  1  0  0  0  0
  1 12  1  0  0  0  0
  1 28  1  0  0  0  0
  2  5  1  0  0  0  0
  2 32  1  0  0  0  0
  2 36  1  0  0  0  0
  3  6  1  0  0  0  0
  3 11  1  0  0  0  0
  3 14  1  0  0  0  0
  3 40  1  0  0  0  0
  4  5  1  0  0  0  0
  4  6  1  0  0  0  0
  4  8  1  0  0  0  0
  4 83  1  0  0  0  0
  5 17  1  0  0  0  0
  5 84  1  0  0  0  0
  6 20  1  0  0  0  0
  6 85  1  0  0  0  0
  7  8  1  0  0  0  0
  7 23  1  0  0  0  0
  7 86  1  0  0  0  0
  8  9  1  0  0  0  0
  8 10  1  0  0  0  0
 11 24  1  0  0  0  0
 11 35  1  0  0  0  0
 11 87  1  0  0  0  0
 12 13  1  0  0  0  0
 12 27  1  0  0  0  0
 14 15  1  0  0  0  0
 14 16  1  0  0  0  0
 14 17  1  0  0  0  0
 17 18  1  0  0  0  0
 17 19  1  0  0  0  0
 20 21  1  0  0  0  0
 20 22  1  0  0  0  0
 20 24  1  0  0  0  0
 23 29  1  0  0  0  0
 24 25  1  0  0  0  0
 24 26  1  0  0  0  0
 27 30  2  0  0  0  0
 27 52  1  0  0  0  0
 28 44  1  0  0  0  0
 28 60  1  0  0  0  0
 28 88  1  0  0  0  0
 29 31  2  0  0  0  0
 29 56  1  0  0  0  0
 32 33  1  0  0  0  0
 32 34  1  0  0  0  0
 32 46  1  0  0  0  0
 35 63  1  0  0  0  0
 35 66  1  0  0  0  0
 35 89  1  0  0  0  0
 36 37  1  0  0  0  0
 36 38  1  0  0  0  0
 36 39  1  0  0  0  0
 40 41  1  0  0  0  0
 40 42  1  0  0  0  0
 40 43  1  0  0  0  0
 44 45  1  0  0  0  0
 46 47  1  0  0  0  0
 46 48  1  0  0  0  0
 46 60  1  0  0  0  0
 49 50  1  0  0  0  0
 49 51  1  0  0  0  0
 49 63  1  0  0  0  0
 49 70  1  0  0  0  0
 52 53  1  0  0  0  0
 52 54  1  0  0  0  0
 52 55  1  0  0  0  0
 56 57  1  0  0  0  0
 56 58  1  0  0  0  0
 56 59  1  0  0  0  0
 60 61  1  0  0  0  0
 60 62  1  0  0  0  0
 63 64  1  0  0  0  0
 63 65  1  0  0  0  0
 66 67  1  0  0  0  0
 66 68  1  0  0  0  0
 66 69  1  0  0  0  0
 70 71  1  0  0  0  0
 70 72  1  0  0  0  0
 70 73  1  0  0  0  0
 73 74  1  0  0  0  0
 73 75  1  0  0  0  0
 73 79  1  0  0  0  0
 75 76  1  0  0  0  0
 75 77  1  0  0  0  0
 75 78  1  0  0  0  0
 79 80  1  0  0  0  0
 79 81  1  0  0  0  0
 79 82  1  0  0  0  0
M  END
>  <IDNUMBER>
AQ-152/43287165

>  <NAME>
4,6-Dihydroxycholestane, 6-acetyl-5-(acetylamino) derivative of

>  <ADD_INFO>
http://www.specs.net/enter.php?specsid=AQ-152/43287165

>  <H_ACCEPTORS>
5

>  <H_DONORS>
2

>  <ROTATABLE_BONDS>
9

>  <LOGP>
6.7199998

>  <LOGS>
-8.6099997

>  <TPSA>
75.629997

>  <PRICE>
N05

$$$$
